<?xml version="1.0" encoding="UTF-8"?>

<!-- generated on Wed 19 Aug 2020 18:18:29 by Eclipse SUMO netedit Version 1.4.0
<configuration xmlns:xsi="http://www.w3.org/2001/XMLSchema-instance" xsi:noNamespaceSchemaLocation="http://sumo.dlr.de/xsd/netconvertConfiguration.xsd">

    <output>
        <output-file value="/home/smile/Desktop/New%20demo/P-M/p_m.net.xml"/>
    </output>

    <processing>
        <offset.disable-normalization value="true"/>
    </processing>

    <junctions>
        <no-turnarounds value="true"/>
    </junctions>

    <report>
        <aggregate-warnings value="5"/>
    </report>

</configuration>
-->

<net version="1.3" junctionCornerDetail="5" limitTurnSpeed="5.50" xmlns:xsi="http://www.w3.org/2001/XMLSchema-instance" xsi:noNamespaceSchemaLocation="http://sumo.dlr.de/xsd/net_file.xsd">

    <location netOffset="0.00,0.00" convBoundary="4.89,42.93,5.80,98.19" origBoundary="10000000000.00,10000000000.00,-10000000000.00,-10000000000.00" projParameter="!"/>

    <edge id="-gneE3" from="gneJ6" to="gneJ5" priority="-1">
        <lane id="-gneE3_0" index="0" speed="13.89" length="55.26" shape="7.40,42.96 6.49,98.21"/>
    </edge>
    <edge id="gneE3" from="gneJ5" to="gneJ6" priority="-1">
        <lane id="gneE3_0" index="0" speed="13.89" length="55.26" shape="3.29,98.16 4.20,42.91"/>
    </edge>

    <junction id="gneJ5" type="dead_end" x="4.89" y="98.19" incLanes="-gneE3_0" intLanes="" shape="4.89,98.19 8.09,98.24 4.89,98.19"/>
    <junction id="gneJ6" type="dead_end" x="5.80" y="42.93" incLanes="gneE3_0" intLanes="" shape="5.80,42.93 2.60,42.88 5.80,42.93"/>

</net>
