<?xml version="1.0" encoding="UTF-8"?>

<!-- generated on Wed Aug 19 18:08:00 2020 by Eclipse SUMO duarouter Version 1.4.0
<configuration xmlns:xsi="http://www.w3.org/2001/XMLSchema-instance" xsi:noNamespaceSchemaLocation="http://sumo.dlr.de/xsd/duarouterConfiguration.xsd">

    <input>
        <net-file value="tjun.net.xml"/>
        <route-files value="trips.trips.xml"/>
    </input>

    <output>
        <output-file value="tjun.rou.xml"/>
        <alternatives-output value="tjun.rou.alt.xml"/>
    </output>

    <time>
        <begin value="0"/>
        <end value="1000.0"/>
    </time>

    <report>
        <no-warnings value="true"/>
        <ignore-errors value="true"/>
        <no-step-log value="true"/>
    </report>

</configuration>
-->

<routes xmlns:xsi="http://www.w3.org/2001/XMLSchema-instance" xsi:noNamespaceSchemaLocation="http://sumo.dlr.de/xsd/routes_file.xsd">
    <vehicle id="0" depart="0.00">
        <route edges="-gneE5 gneE6"/>
    </vehicle>
    <vehicle id="1" depart="1.00">
        <route edges="-gneE6 gneE7"/>
    </vehicle>
    <vehicle id="2" depart="2.00">
        <route edges="-gneE5 gneE7"/>
    </vehicle>
    <vehicle id="3" depart="3.00">
        <route edges="-gneE7 gneE6"/>
    </vehicle>
    <vehicle id="4" depart="4.00">
        <route edges="-gneE7 gneE6"/>
    </vehicle>
    <vehicle id="5" depart="5.00">
        <route edges="-gneE7 gneE6"/>
    </vehicle>
    <vehicle id="6" depart="6.00">
        <route edges="-gneE5 gneE6"/>
    </vehicle>
    <vehicle id="7" depart="7.00">
        <route edges="-gneE7 gneE5"/>
    </vehicle>
    <vehicle id="8" depart="8.00">
        <route edges="-gneE6 gneE5"/>
    </vehicle>
    <vehicle id="9" depart="9.00">
        <route edges="-gneE6 gneE5"/>
    </vehicle>
    <vehicle id="10" depart="10.00">
        <route edges="-gneE6 gneE7"/>
    </vehicle>
    <vehicle id="11" depart="11.00">
        <route edges="-gneE6 gneE7"/>
    </vehicle>
    <vehicle id="13" depart="13.00">
        <route edges="-gneE7 gneE5"/>
    </vehicle>
    <vehicle id="14" depart="14.00">
        <route edges="-gneE6 gneE5"/>
    </vehicle>
    <vehicle id="15" depart="15.00">
        <route edges="-gneE5 gneE6"/>
    </vehicle>
    <vehicle id="16" depart="16.00">
        <route edges="-gneE7 gneE6"/>
    </vehicle>
    <vehicle id="18" depart="18.00">
        <route edges="-gneE7 gneE5"/>
    </vehicle>
    <vehicle id="21" depart="21.00">
        <route edges="-gneE5 gneE6"/>
    </vehicle>
    <vehicle id="22" depart="22.00">
        <route edges="-gneE7 gneE5"/>
    </vehicle>
    <vehicle id="24" depart="24.00">
        <route edges="-gneE6 gneE5"/>
    </vehicle>
    <vehicle id="30" depart="30.00">
        <route edges="-gneE6 gneE5"/>
    </vehicle>
    <vehicle id="31" depart="31.00">
        <route edges="-gneE6 gneE5"/>
    </vehicle>
    <vehicle id="32" depart="32.00">
        <route edges="-gneE6 gneE7"/>
    </vehicle>
    <vehicle id="34" depart="34.00">
        <route edges="-gneE6 gneE7"/>
    </vehicle>
    <vehicle id="37" depart="37.00">
        <route edges="-gneE7 gneE6"/>
    </vehicle>
    <vehicle id="38" depart="38.00">
        <route edges="-gneE7 gneE6"/>
    </vehicle>
    <vehicle id="40" depart="40.00">
        <route edges="-gneE5 gneE6"/>
    </vehicle>
    <vehicle id="41" depart="41.00">
        <route edges="-gneE6 gneE5"/>
    </vehicle>
    <vehicle id="43" depart="43.00">
        <route edges="-gneE7 gneE6"/>
    </vehicle>
    <vehicle id="44" depart="44.00">
        <route edges="-gneE6 gneE7"/>
    </vehicle>
    <vehicle id="49" depart="49.00">
        <route edges="-gneE5 gneE6"/>
    </vehicle>
    <vehicle id="50" depart="50.00">
        <route edges="-gneE5 gneE6"/>
    </vehicle>
    <vehicle id="51" depart="51.00">
        <route edges="-gneE5 gneE6"/>
    </vehicle>
    <vehicle id="52" depart="52.00">
        <route edges="-gneE6 gneE5"/>
    </vehicle>
    <vehicle id="54" depart="54.00">
        <route edges="-gneE6 gneE5"/>
    </vehicle>
    <vehicle id="56" depart="56.00">
        <route edges="-gneE5 gneE7"/>
    </vehicle>
    <vehicle id="59" depart="59.00">
        <route edges="-gneE7 gneE5"/>
    </vehicle>
    <vehicle id="60" depart="60.00">
        <route edges="-gneE5 gneE6"/>
    </vehicle>
    <vehicle id="62" depart="62.00">
        <route edges="-gneE6 gneE7"/>
    </vehicle>
    <vehicle id="64" depart="64.00">
        <route edges="-gneE5 gneE7"/>
    </vehicle>
    <vehicle id="65" depart="65.00">
        <route edges="-gneE6 gneE7"/>
    </vehicle>
    <vehicle id="66" depart="66.00">
        <route edges="-gneE6 gneE7"/>
    </vehicle>
    <vehicle id="68" depart="68.00">
        <route edges="-gneE7 gneE5"/>
    </vehicle>
    <vehicle id="70" depart="70.00">
        <route edges="-gneE7 gneE5"/>
    </vehicle>
    <vehicle id="73" depart="73.00">
        <route edges="-gneE5 gneE7"/>
    </vehicle>
    <vehicle id="74" depart="74.00">
        <route edges="-gneE5 gneE7"/>
    </vehicle>
    <vehicle id="78" depart="78.00">
        <route edges="-gneE5 gneE7"/>
    </vehicle>
    <vehicle id="82" depart="82.00">
        <route edges="-gneE7 gneE5"/>
    </vehicle>
    <vehicle id="83" depart="83.00">
        <route edges="-gneE6 gneE5"/>
    </vehicle>
    <vehicle id="84" depart="84.00">
        <route edges="-gneE5 gneE7"/>
    </vehicle>
    <vehicle id="85" depart="85.00">
        <route edges="-gneE6 gneE5"/>
    </vehicle>
    <vehicle id="86" depart="86.00">
        <route edges="-gneE6 gneE5"/>
    </vehicle>
    <vehicle id="87" depart="87.00">
        <route edges="-gneE7 gneE6"/>
    </vehicle>
    <vehicle id="89" depart="89.00">
        <route edges="-gneE5 gneE6"/>
    </vehicle>
    <vehicle id="91" depart="91.00">
        <route edges="-gneE5 gneE7"/>
    </vehicle>
    <vehicle id="92" depart="92.00">
        <route edges="-gneE5 gneE6"/>
    </vehicle>
    <vehicle id="94" depart="94.00">
        <route edges="-gneE6 gneE7"/>
    </vehicle>
    <vehicle id="95" depart="95.00">
        <route edges="-gneE6 gneE7"/>
    </vehicle>
    <vehicle id="96" depart="96.00">
        <route edges="-gneE6 gneE5"/>
    </vehicle>
    <vehicle id="97" depart="97.00">
        <route edges="-gneE6 gneE5"/>
    </vehicle>
    <vehicle id="99" depart="99.00">
        <route edges="-gneE7 gneE5"/>
    </vehicle>
    <vehicle id="100" depart="100.00">
        <route edges="-gneE5 gneE7"/>
    </vehicle>
    <vehicle id="101" depart="101.00">
        <route edges="-gneE6 gneE7"/>
    </vehicle>
    <vehicle id="103" depart="103.00">
        <route edges="-gneE6 gneE5"/>
    </vehicle>
    <vehicle id="104" depart="104.00">
        <route edges="-gneE5 gneE6"/>
    </vehicle>
    <vehicle id="108" depart="108.00">
        <route edges="-gneE7 gneE5"/>
    </vehicle>
    <vehicle id="109" depart="109.00">
        <route edges="-gneE7 gneE5"/>
    </vehicle>
    <vehicle id="110" depart="110.00">
        <route edges="-gneE6 gneE7"/>
    </vehicle>
    <vehicle id="111" depart="111.00">
        <route edges="-gneE7 gneE5"/>
    </vehicle>
    <vehicle id="114" depart="114.00">
        <route edges="-gneE6 gneE5"/>
    </vehicle>
    <vehicle id="115" depart="115.00">
        <route edges="-gneE6 gneE7"/>
    </vehicle>
    <vehicle id="117" depart="117.00">
        <route edges="-gneE7 gneE5"/>
    </vehicle>
    <vehicle id="118" depart="118.00">
        <route edges="-gneE6 gneE5"/>
    </vehicle>
    <vehicle id="119" depart="119.00">
        <route edges="-gneE6 gneE7"/>
    </vehicle>
    <vehicle id="121" depart="121.00">
        <route edges="-gneE5 gneE7"/>
    </vehicle>
    <vehicle id="122" depart="122.00">
        <route edges="-gneE6 gneE5"/>
    </vehicle>
    <vehicle id="123" depart="123.00">
        <route edges="-gneE7 gneE5"/>
    </vehicle>
    <vehicle id="127" depart="127.00">
        <route edges="-gneE6 gneE5"/>
    </vehicle>
    <vehicle id="128" depart="128.00">
        <route edges="-gneE6 gneE7"/>
    </vehicle>
    <vehicle id="129" depart="129.00">
        <route edges="-gneE6 gneE7"/>
    </vehicle>
    <vehicle id="132" depart="132.00">
        <route edges="-gneE7 gneE6"/>
    </vehicle>
    <vehicle id="133" depart="133.00">
        <route edges="-gneE7 gneE5"/>
    </vehicle>
    <vehicle id="134" depart="134.00">
        <route edges="-gneE6 gneE7"/>
    </vehicle>
    <vehicle id="135" depart="135.00">
        <route edges="-gneE5 gneE6"/>
    </vehicle>
    <vehicle id="136" depart="136.00">
        <route edges="-gneE5 gneE6"/>
    </vehicle>
    <vehicle id="137" depart="137.00">
        <route edges="-gneE7 gneE6"/>
    </vehicle>
    <vehicle id="138" depart="138.00">
        <route edges="-gneE5 gneE7"/>
    </vehicle>
    <vehicle id="140" depart="140.00">
        <route edges="-gneE5 gneE6"/>
    </vehicle>
    <vehicle id="141" depart="141.00">
        <route edges="-gneE6 gneE5"/>
    </vehicle>
    <vehicle id="142" depart="142.00">
        <route edges="-gneE7 gneE5"/>
    </vehicle>
    <vehicle id="144" depart="144.00">
        <route edges="-gneE5 gneE6"/>
    </vehicle>
    <vehicle id="146" depart="146.00">
        <route edges="-gneE6 gneE7"/>
    </vehicle>
    <vehicle id="148" depart="148.00">
        <route edges="-gneE6 gneE5"/>
    </vehicle>
    <vehicle id="149" depart="149.00">
        <route edges="-gneE5 gneE6"/>
    </vehicle>
    <vehicle id="151" depart="151.00">
        <route edges="-gneE5 gneE7"/>
    </vehicle>
    <vehicle id="152" depart="152.00">
        <route edges="-gneE5 gneE7"/>
    </vehicle>
    <vehicle id="153" depart="153.00">
        <route edges="-gneE6 gneE5"/>
    </vehicle>
    <vehicle id="154" depart="154.00">
        <route edges="-gneE5 gneE7"/>
    </vehicle>
    <vehicle id="155" depart="155.00">
        <route edges="-gneE7 gneE6"/>
    </vehicle>
    <vehicle id="157" depart="157.00">
        <route edges="-gneE7 gneE6"/>
    </vehicle>
    <vehicle id="158" depart="158.00">
        <route edges="-gneE5 gneE6"/>
    </vehicle>
    <vehicle id="159" depart="159.00">
        <route edges="-gneE5 gneE7"/>
    </vehicle>
    <vehicle id="163" depart="163.00">
        <route edges="-gneE5 gneE6"/>
    </vehicle>
    <vehicle id="165" depart="165.00">
        <route edges="-gneE7 gneE5"/>
    </vehicle>
    <vehicle id="166" depart="166.00">
        <route edges="-gneE5 gneE6"/>
    </vehicle>
    <vehicle id="167" depart="167.00">
        <route edges="-gneE7 gneE6"/>
    </vehicle>
    <vehicle id="169" depart="169.00">
        <route edges="-gneE5 gneE6"/>
    </vehicle>
    <vehicle id="171" depart="171.00">
        <route edges="-gneE6 gneE7"/>
    </vehicle>
    <vehicle id="173" depart="173.00">
        <route edges="-gneE7 gneE6"/>
    </vehicle>
    <vehicle id="175" depart="175.00">
        <route edges="-gneE6 gneE5"/>
    </vehicle>
    <vehicle id="176" depart="176.00">
        <route edges="-gneE5 gneE6"/>
    </vehicle>
    <vehicle id="177" depart="177.00">
        <route edges="-gneE6 gneE5"/>
    </vehicle>
    <vehicle id="178" depart="178.00">
        <route edges="-gneE7 gneE6"/>
    </vehicle>
    <vehicle id="181" depart="181.00">
        <route edges="-gneE7 gneE5"/>
    </vehicle>
    <vehicle id="184" depart="184.00">
        <route edges="-gneE6 gneE7"/>
    </vehicle>
    <vehicle id="185" depart="185.00">
        <route edges="-gneE6 gneE5"/>
    </vehicle>
    <vehicle id="189" depart="189.00">
        <route edges="-gneE6 gneE5"/>
    </vehicle>
    <vehicle id="190" depart="190.00">
        <route edges="-gneE7 gneE5"/>
    </vehicle>
    <vehicle id="191" depart="191.00">
        <route edges="-gneE5 gneE7"/>
    </vehicle>
    <vehicle id="192" depart="192.00">
        <route edges="-gneE5 gneE6"/>
    </vehicle>
    <vehicle id="193" depart="193.00">
        <route edges="-gneE5 gneE7"/>
    </vehicle>
    <vehicle id="194" depart="194.00">
        <route edges="-gneE7 gneE5"/>
    </vehicle>
    <vehicle id="195" depart="195.00">
        <route edges="-gneE6 gneE7"/>
    </vehicle>
    <vehicle id="197" depart="197.00">
        <route edges="-gneE7 gneE5"/>
    </vehicle>
    <vehicle id="200" depart="200.00">
        <route edges="-gneE5 gneE7"/>
    </vehicle>
    <vehicle id="201" depart="201.00">
        <route edges="-gneE6 gneE5"/>
    </vehicle>
    <vehicle id="203" depart="203.00">
        <route edges="-gneE5 gneE6"/>
    </vehicle>
    <vehicle id="205" depart="205.00">
        <route edges="-gneE7 gneE5"/>
    </vehicle>
    <vehicle id="208" depart="208.00">
        <route edges="-gneE7 gneE5"/>
    </vehicle>
    <vehicle id="209" depart="209.00">
        <route edges="-gneE7 gneE5"/>
    </vehicle>
    <vehicle id="210" depart="210.00">
        <route edges="-gneE7 gneE6"/>
    </vehicle>
    <vehicle id="211" depart="211.00">
        <route edges="-gneE7 gneE5"/>
    </vehicle>
    <vehicle id="212" depart="212.00">
        <route edges="-gneE5 gneE6"/>
    </vehicle>
    <vehicle id="213" depart="213.00">
        <route edges="-gneE6 gneE5"/>
    </vehicle>
    <vehicle id="214" depart="214.00">
        <route edges="-gneE5 gneE6"/>
    </vehicle>
    <vehicle id="215" depart="215.00">
        <route edges="-gneE6 gneE5"/>
    </vehicle>
    <vehicle id="216" depart="216.00">
        <route edges="-gneE6 gneE7"/>
    </vehicle>
    <vehicle id="217" depart="217.00">
        <route edges="-gneE7 gneE6"/>
    </vehicle>
    <vehicle id="220" depart="220.00">
        <route edges="-gneE7 gneE6"/>
    </vehicle>
    <vehicle id="222" depart="222.00">
        <route edges="-gneE6 gneE7"/>
    </vehicle>
    <vehicle id="226" depart="226.00">
        <route edges="-gneE7 gneE5"/>
    </vehicle>
    <vehicle id="229" depart="229.00">
        <route edges="-gneE6 gneE5"/>
    </vehicle>
    <vehicle id="230" depart="230.00">
        <route edges="-gneE7 gneE6"/>
    </vehicle>
    <vehicle id="232" depart="232.00">
        <route edges="-gneE6 gneE5"/>
    </vehicle>
    <vehicle id="234" depart="234.00">
        <route edges="-gneE5 gneE7"/>
    </vehicle>
    <vehicle id="235" depart="235.00">
        <route edges="-gneE6 gneE7"/>
    </vehicle>
    <vehicle id="238" depart="238.00">
        <route edges="-gneE6 gneE5"/>
    </vehicle>
    <vehicle id="239" depart="239.00">
        <route edges="-gneE6 gneE5"/>
    </vehicle>
    <vehicle id="240" depart="240.00">
        <route edges="-gneE7 gneE5"/>
    </vehicle>
    <vehicle id="241" depart="241.00">
        <route edges="-gneE6 gneE5"/>
    </vehicle>
    <vehicle id="243" depart="243.00">
        <route edges="-gneE5 gneE7"/>
    </vehicle>
    <vehicle id="244" depart="244.00">
        <route edges="-gneE6 gneE5"/>
    </vehicle>
    <vehicle id="246" depart="246.00">
        <route edges="-gneE6 gneE7"/>
    </vehicle>
    <vehicle id="247" depart="247.00">
        <route edges="-gneE5 gneE7"/>
    </vehicle>
    <vehicle id="248" depart="248.00">
        <route edges="-gneE5 gneE7"/>
    </vehicle>
    <vehicle id="250" depart="250.00">
        <route edges="-gneE5 gneE7"/>
    </vehicle>
    <vehicle id="251" depart="251.00">
        <route edges="-gneE5 gneE6"/>
    </vehicle>
    <vehicle id="252" depart="252.00">
        <route edges="-gneE7 gneE5"/>
    </vehicle>
    <vehicle id="254" depart="254.00">
        <route edges="-gneE5 gneE6"/>
    </vehicle>
    <vehicle id="255" depart="255.00">
        <route edges="-gneE6 gneE5"/>
    </vehicle>
    <vehicle id="256" depart="256.00">
        <route edges="-gneE7 gneE5"/>
    </vehicle>
    <vehicle id="257" depart="257.00">
        <route edges="-gneE5 gneE7"/>
    </vehicle>
    <vehicle id="258" depart="258.00">
        <route edges="-gneE6 gneE5"/>
    </vehicle>
    <vehicle id="259" depart="259.00">
        <route edges="-gneE7 gneE6"/>
    </vehicle>
    <vehicle id="260" depart="260.00">
        <route edges="-gneE7 gneE5"/>
    </vehicle>
    <vehicle id="261" depart="261.00">
        <route edges="-gneE7 gneE5"/>
    </vehicle>
    <vehicle id="262" depart="262.00">
        <route edges="-gneE7 gneE5"/>
    </vehicle>
    <vehicle id="264" depart="264.00">
        <route edges="-gneE5 gneE6"/>
    </vehicle>
    <vehicle id="266" depart="266.00">
        <route edges="-gneE5 gneE6"/>
    </vehicle>
    <vehicle id="267" depart="267.00">
        <route edges="-gneE6 gneE5"/>
    </vehicle>
    <vehicle id="268" depart="268.00">
        <route edges="-gneE5 gneE6"/>
    </vehicle>
    <vehicle id="269" depart="269.00">
        <route edges="-gneE6 gneE7"/>
    </vehicle>
    <vehicle id="270" depart="270.00">
        <route edges="-gneE6 gneE5"/>
    </vehicle>
    <vehicle id="271" depart="271.00">
        <route edges="-gneE6 gneE5"/>
    </vehicle>
    <vehicle id="272" depart="272.00">
        <route edges="-gneE6 gneE5"/>
    </vehicle>
    <vehicle id="273" depart="273.00">
        <route edges="-gneE5 gneE6"/>
    </vehicle>
    <vehicle id="277" depart="277.00">
        <route edges="-gneE5 gneE6"/>
    </vehicle>
    <vehicle id="278" depart="278.00">
        <route edges="-gneE6 gneE7"/>
    </vehicle>
    <vehicle id="280" depart="280.00">
        <route edges="-gneE5 gneE6"/>
    </vehicle>
    <vehicle id="282" depart="282.00">
        <route edges="-gneE6 gneE5"/>
    </vehicle>
    <vehicle id="283" depart="283.00">
        <route edges="-gneE5 gneE7"/>
    </vehicle>
    <vehicle id="284" depart="284.00">
        <route edges="-gneE6 gneE5"/>
    </vehicle>
    <vehicle id="288" depart="288.00">
        <route edges="-gneE6 gneE7"/>
    </vehicle>
    <vehicle id="292" depart="292.00">
        <route edges="-gneE7 gneE5"/>
    </vehicle>
    <vehicle id="293" depart="293.00">
        <route edges="-gneE7 gneE6"/>
    </vehicle>
    <vehicle id="294" depart="294.00">
        <route edges="-gneE5 gneE7"/>
    </vehicle>
    <vehicle id="295" depart="295.00">
        <route edges="-gneE7 gneE6"/>
    </vehicle>
    <vehicle id="296" depart="296.00">
        <route edges="-gneE6 gneE5"/>
    </vehicle>
    <vehicle id="298" depart="298.00">
        <route edges="-gneE7 gneE6"/>
    </vehicle>
    <vehicle id="300" depart="300.00">
        <route edges="-gneE5 gneE7"/>
    </vehicle>
    <vehicle id="301" depart="301.00">
        <route edges="-gneE7 gneE5"/>
    </vehicle>
    <vehicle id="302" depart="302.00">
        <route edges="-gneE5 gneE6"/>
    </vehicle>
    <vehicle id="303" depart="303.00">
        <route edges="-gneE7 gneE5"/>
    </vehicle>
    <vehicle id="304" depart="304.00">
        <route edges="-gneE5 gneE7"/>
    </vehicle>
    <vehicle id="305" depart="305.00">
        <route edges="-gneE7 gneE6"/>
    </vehicle>
    <vehicle id="306" depart="306.00">
        <route edges="-gneE5 gneE6"/>
    </vehicle>
    <vehicle id="307" depart="307.00">
        <route edges="-gneE5 gneE7"/>
    </vehicle>
    <vehicle id="308" depart="308.00">
        <route edges="-gneE5 gneE7"/>
    </vehicle>
    <vehicle id="309" depart="309.00">
        <route edges="-gneE6 gneE5"/>
    </vehicle>
    <vehicle id="310" depart="310.00">
        <route edges="-gneE7 gneE6"/>
    </vehicle>
    <vehicle id="311" depart="311.00">
        <route edges="-gneE5 gneE6"/>
    </vehicle>
    <vehicle id="313" depart="313.00">
        <route edges="-gneE5 gneE6"/>
    </vehicle>
    <vehicle id="316" depart="316.00">
        <route edges="-gneE5 gneE6"/>
    </vehicle>
    <vehicle id="317" depart="317.00">
        <route edges="-gneE6 gneE5"/>
    </vehicle>
    <vehicle id="320" depart="320.00">
        <route edges="-gneE5 gneE7"/>
    </vehicle>
    <vehicle id="322" depart="322.00">
        <route edges="-gneE7 gneE6"/>
    </vehicle>
    <vehicle id="324" depart="324.00">
        <route edges="-gneE5 gneE6"/>
    </vehicle>
    <vehicle id="325" depart="325.00">
        <route edges="-gneE5 gneE6"/>
    </vehicle>
    <vehicle id="326" depart="326.00">
        <route edges="-gneE7 gneE5"/>
    </vehicle>
    <vehicle id="327" depart="327.00">
        <route edges="-gneE5 gneE7"/>
    </vehicle>
    <vehicle id="328" depart="328.00">
        <route edges="-gneE7 gneE5"/>
    </vehicle>
    <vehicle id="329" depart="329.00">
        <route edges="-gneE6 gneE7"/>
    </vehicle>
    <vehicle id="331" depart="331.00">
        <route edges="-gneE7 gneE5"/>
    </vehicle>
    <vehicle id="332" depart="332.00">
        <route edges="-gneE6 gneE7"/>
    </vehicle>
    <vehicle id="333" depart="333.00">
        <route edges="-gneE7 gneE6"/>
    </vehicle>
    <vehicle id="335" depart="335.00">
        <route edges="-gneE7 gneE6"/>
    </vehicle>
    <vehicle id="338" depart="338.00">
        <route edges="-gneE6 gneE5"/>
    </vehicle>
    <vehicle id="339" depart="339.00">
        <route edges="-gneE6 gneE5"/>
    </vehicle>
    <vehicle id="340" depart="340.00">
        <route edges="-gneE7 gneE6"/>
    </vehicle>
    <vehicle id="342" depart="342.00">
        <route edges="-gneE7 gneE6"/>
    </vehicle>
    <vehicle id="343" depart="343.00">
        <route edges="-gneE5 gneE6"/>
    </vehicle>
    <vehicle id="347" depart="347.00">
        <route edges="-gneE5 gneE7"/>
    </vehicle>
    <vehicle id="348" depart="348.00">
        <route edges="-gneE5 gneE7"/>
    </vehicle>
    <vehicle id="350" depart="350.00">
        <route edges="-gneE6 gneE7"/>
    </vehicle>
    <vehicle id="353" depart="353.00">
        <route edges="-gneE7 gneE5"/>
    </vehicle>
    <vehicle id="354" depart="354.00">
        <route edges="-gneE5 gneE7"/>
    </vehicle>
    <vehicle id="355" depart="355.00">
        <route edges="-gneE5 gneE7"/>
    </vehicle>
    <vehicle id="356" depart="356.00">
        <route edges="-gneE6 gneE7"/>
    </vehicle>
    <vehicle id="357" depart="357.00">
        <route edges="-gneE6 gneE7"/>
    </vehicle>
    <vehicle id="358" depart="358.00">
        <route edges="-gneE6 gneE7"/>
    </vehicle>
    <vehicle id="359" depart="359.00">
        <route edges="-gneE7 gneE5"/>
    </vehicle>
    <vehicle id="360" depart="360.00">
        <route edges="-gneE7 gneE5"/>
    </vehicle>
    <vehicle id="363" depart="363.00">
        <route edges="-gneE5 gneE7"/>
    </vehicle>
    <vehicle id="364" depart="364.00">
        <route edges="-gneE6 gneE5"/>
    </vehicle>
    <vehicle id="365" depart="365.00">
        <route edges="-gneE5 gneE6"/>
    </vehicle>
    <vehicle id="367" depart="367.00">
        <route edges="-gneE7 gneE6"/>
    </vehicle>
    <vehicle id="371" depart="371.00">
        <route edges="-gneE6 gneE5"/>
    </vehicle>
    <vehicle id="372" depart="372.00">
        <route edges="-gneE7 gneE5"/>
    </vehicle>
    <vehicle id="374" depart="374.00">
        <route edges="-gneE7 gneE5"/>
    </vehicle>
    <vehicle id="375" depart="375.00">
        <route edges="-gneE5 gneE6"/>
    </vehicle>
    <vehicle id="376" depart="376.00">
        <route edges="-gneE5 gneE6"/>
    </vehicle>
    <vehicle id="379" depart="379.00">
        <route edges="-gneE7 gneE5"/>
    </vehicle>
    <vehicle id="380" depart="380.00">
        <route edges="-gneE6 gneE5"/>
    </vehicle>
    <vehicle id="381" depart="381.00">
        <route edges="-gneE5 gneE6"/>
    </vehicle>
    <vehicle id="382" depart="382.00">
        <route edges="-gneE7 gneE5"/>
    </vehicle>
    <vehicle id="383" depart="383.00">
        <route edges="-gneE5 gneE6"/>
    </vehicle>
    <vehicle id="384" depart="384.00">
        <route edges="-gneE7 gneE6"/>
    </vehicle>
    <vehicle id="386" depart="386.00">
        <route edges="-gneE7 gneE6"/>
    </vehicle>
    <vehicle id="387" depart="387.00">
        <route edges="-gneE7 gneE6"/>
    </vehicle>
    <vehicle id="389" depart="389.00">
        <route edges="-gneE5 gneE6"/>
    </vehicle>
    <vehicle id="392" depart="392.00">
        <route edges="-gneE6 gneE7"/>
    </vehicle>
    <vehicle id="393" depart="393.00">
        <route edges="-gneE5 gneE7"/>
    </vehicle>
    <vehicle id="395" depart="395.00">
        <route edges="-gneE5 gneE6"/>
    </vehicle>
    <vehicle id="396" depart="396.00">
        <route edges="-gneE5 gneE6"/>
    </vehicle>
    <vehicle id="398" depart="398.00">
        <route edges="-gneE7 gneE6"/>
    </vehicle>
    <vehicle id="401" depart="401.00">
        <route edges="-gneE5 gneE6"/>
    </vehicle>
    <vehicle id="402" depart="402.00">
        <route edges="-gneE6 gneE5"/>
    </vehicle>
    <vehicle id="403" depart="403.00">
        <route edges="-gneE6 gneE5"/>
    </vehicle>
    <vehicle id="404" depart="404.00">
        <route edges="-gneE5 gneE6"/>
    </vehicle>
    <vehicle id="407" depart="407.00">
        <route edges="-gneE6 gneE5"/>
    </vehicle>
    <vehicle id="408" depart="408.00">
        <route edges="-gneE5 gneE6"/>
    </vehicle>
    <vehicle id="409" depart="409.00">
        <route edges="-gneE6 gneE7"/>
    </vehicle>
    <vehicle id="410" depart="410.00">
        <route edges="-gneE7 gneE5"/>
    </vehicle>
    <vehicle id="411" depart="411.00">
        <route edges="-gneE5 gneE6"/>
    </vehicle>
    <vehicle id="412" depart="412.00">
        <route edges="-gneE5 gneE7"/>
    </vehicle>
    <vehicle id="413" depart="413.00">
        <route edges="-gneE6 gneE5"/>
    </vehicle>
    <vehicle id="414" depart="414.00">
        <route edges="-gneE6 gneE5"/>
    </vehicle>
    <vehicle id="415" depart="415.00">
        <route edges="-gneE6 gneE5"/>
    </vehicle>
    <vehicle id="417" depart="417.00">
        <route edges="-gneE5 gneE6"/>
    </vehicle>
    <vehicle id="418" depart="418.00">
        <route edges="-gneE7 gneE6"/>
    </vehicle>
    <vehicle id="419" depart="419.00">
        <route edges="-gneE5 gneE6"/>
    </vehicle>
    <vehicle id="420" depart="420.00">
        <route edges="-gneE5 gneE7"/>
    </vehicle>
    <vehicle id="421" depart="421.00">
        <route edges="-gneE7 gneE5"/>
    </vehicle>
    <vehicle id="422" depart="422.00">
        <route edges="-gneE5 gneE6"/>
    </vehicle>
    <vehicle id="424" depart="424.00">
        <route edges="-gneE7 gneE5"/>
    </vehicle>
    <vehicle id="425" depart="425.00">
        <route edges="-gneE6 gneE7"/>
    </vehicle>
    <vehicle id="427" depart="427.00">
        <route edges="-gneE7 gneE6"/>
    </vehicle>
    <vehicle id="428" depart="428.00">
        <route edges="-gneE7 gneE5"/>
    </vehicle>
    <vehicle id="430" depart="430.00">
        <route edges="-gneE7 gneE5"/>
    </vehicle>
    <vehicle id="431" depart="431.00">
        <route edges="-gneE6 gneE7"/>
    </vehicle>
    <vehicle id="432" depart="432.00">
        <route edges="-gneE5 gneE7"/>
    </vehicle>
    <vehicle id="436" depart="436.00">
        <route edges="-gneE6 gneE5"/>
    </vehicle>
    <vehicle id="437" depart="437.00">
        <route edges="-gneE6 gneE5"/>
    </vehicle>
    <vehicle id="438" depart="438.00">
        <route edges="-gneE6 gneE5"/>
    </vehicle>
    <vehicle id="439" depart="439.00">
        <route edges="-gneE5 gneE7"/>
    </vehicle>
    <vehicle id="440" depart="440.00">
        <route edges="-gneE7 gneE6"/>
    </vehicle>
    <vehicle id="443" depart="443.00">
        <route edges="-gneE7 gneE6"/>
    </vehicle>
    <vehicle id="444" depart="444.00">
        <route edges="-gneE7 gneE6"/>
    </vehicle>
    <vehicle id="445" depart="445.00">
        <route edges="-gneE7 gneE6"/>
    </vehicle>
    <vehicle id="446" depart="446.00">
        <route edges="-gneE6 gneE7"/>
    </vehicle>
    <vehicle id="450" depart="450.00">
        <route edges="-gneE7 gneE6"/>
    </vehicle>
    <vehicle id="452" depart="452.00">
        <route edges="-gneE6 gneE5"/>
    </vehicle>
    <vehicle id="456" depart="456.00">
        <route edges="-gneE5 gneE7"/>
    </vehicle>
    <vehicle id="458" depart="458.00">
        <route edges="-gneE6 gneE7"/>
    </vehicle>
    <vehicle id="460" depart="460.00">
        <route edges="-gneE5 gneE7"/>
    </vehicle>
    <vehicle id="461" depart="461.00">
        <route edges="-gneE6 gneE5"/>
    </vehicle>
    <vehicle id="462" depart="462.00">
        <route edges="-gneE6 gneE7"/>
    </vehicle>
    <vehicle id="467" depart="467.00">
        <route edges="-gneE5 gneE6"/>
    </vehicle>
    <vehicle id="468" depart="468.00">
        <route edges="-gneE6 gneE5"/>
    </vehicle>
    <vehicle id="469" depart="469.00">
        <route edges="-gneE6 gneE7"/>
    </vehicle>
    <vehicle id="470" depart="470.00">
        <route edges="-gneE5 gneE7"/>
    </vehicle>
    <vehicle id="471" depart="471.00">
        <route edges="-gneE5 gneE7"/>
    </vehicle>
    <vehicle id="472" depart="472.00">
        <route edges="-gneE6 gneE5"/>
    </vehicle>
    <vehicle id="473" depart="473.00">
        <route edges="-gneE5 gneE7"/>
    </vehicle>
    <vehicle id="474" depart="474.00">
        <route edges="-gneE5 gneE6"/>
    </vehicle>
    <vehicle id="475" depart="475.00">
        <route edges="-gneE7 gneE5"/>
    </vehicle>
    <vehicle id="477" depart="477.00">
        <route edges="-gneE6 gneE5"/>
    </vehicle>
    <vehicle id="478" depart="478.00">
        <route edges="-gneE5 gneE6"/>
    </vehicle>
    <vehicle id="479" depart="479.00">
        <route edges="-gneE6 gneE5"/>
    </vehicle>
    <vehicle id="480" depart="480.00">
        <route edges="-gneE5 gneE7"/>
    </vehicle>
    <vehicle id="483" depart="483.00">
        <route edges="-gneE7 gneE6"/>
    </vehicle>
    <vehicle id="485" depart="485.00">
        <route edges="-gneE7 gneE6"/>
    </vehicle>
    <vehicle id="486" depart="486.00">
        <route edges="-gneE7 gneE5"/>
    </vehicle>
    <vehicle id="487" depart="487.00">
        <route edges="-gneE7 gneE6"/>
    </vehicle>
    <vehicle id="489" depart="489.00">
        <route edges="-gneE5 gneE6"/>
    </vehicle>
    <vehicle id="490" depart="490.00">
        <route edges="-gneE5 gneE6"/>
    </vehicle>
    <vehicle id="492" depart="492.00">
        <route edges="-gneE6 gneE5"/>
    </vehicle>
    <vehicle id="494" depart="494.00">
        <route edges="-gneE5 gneE6"/>