<?xml version="1.0" encoding="UTF-8"?>

<!-- generated on Wed Aug 19 18:08:00 2020 by Eclipse SUMO duarouter Version 1.4.0
<configuration xmlns:xsi="http://www.w3.org/2001/XMLSchema-instance" xsi:noNamespaceSchemaLocation="http://sumo.dlr.de/xsd/duarouterConfiguration.xsd">

    <input>
        <net-file value="tjun.net.xml"/>
        <route-files value="trips.trips.xml"/>
    </input>

    <output>
        <output-file value="trips.trips.xml.tmp"/>
        <write-trips value="true"/>
    </output>

    <time>
        <begin value="0"/>
        <end value="1000.0"/>
    </time>

    <report>
        <no-warnings value="true"/>
        <ignore-errors value="true"/>
        <no-step-log value="true"/>
    </report>

</configuration>
-->

<routes xmlns:xsi="http://www.w3.org/2001/XMLSchema-instance" xsi:noNamespaceSchemaLocation="http://sumo.dlr.de/xsd/routes_file.xsd">
    <trip id="0" depart="0.00" from="-gneE5" to="gneE6"/>
    <trip id="1" depart="1.00" from="-gneE6" to="gneE7"/>
    <trip id="2" depart="2.00" from="-gneE5" to="gneE7"/>
    <trip id="3" depart="3.00" from="-gneE7" to="gneE6"/>
    <trip id="4" depart="4.00" from="-gneE7" to="gneE6"/>
    <trip id="5" depart="5.00" from="-gneE7" to="gneE6"/>
    <trip id="6" depart="6.00" from="-gneE5" to="gneE6"/>
    <trip id="7" depart="7.00" from="-gneE7" to="gneE5"/>
    <trip id="8" depart="8.00" from="-gneE6" to="gneE5"/>
    <trip id="9" depart="9.00" from="-gneE6" to="gneE5"/>
    <trip id="10" depart="10.00" from="-gneE6" to="gneE7"/>
    <trip id="11" depart="11.00" from="-gneE6" to="gneE7"/>
    <trip id="13" depart="13.00" from="-gneE7" to="gneE5"/>
    <trip id="14" depart="14.00" from="-gneE6" to="gneE5"/>
    <trip id="15" depart="15.00" from="-gneE5" to="gneE6"/>
    <trip id="16" depart="16.00" from="-gneE7" to="gneE6"/>
    <trip id="18" depart="18.00" from="-gneE7" to="gneE5"/>
    <trip id="21" depart="21.00" from="-gneE5" to="gneE6"/>
    <trip id="22" depart="22.00" from="-gneE7" to="gneE5"/>
    <trip id="24" depart="24.00" from="-gneE6" to="gneE5"/>
    <trip id="30" depart="30.00" from="-gneE6" to="gneE5"/>
    <trip id="31" depart="31.00" from="-gneE6" to="gneE5"/>
    <trip id="32" depart="32.00" from="-gneE6" to="gneE7"/>
    <trip id="34" depart="34.00" from="-gneE6" to="gneE7"/>
    <trip id="37" depart="37.00" from="-gneE7" to="gneE6"/>
    <trip id="38" depart="38.00" from="-gneE7" to="gneE6"/>
    <trip id="40" depart="40.00" from="-gneE5" to="gneE6"/>
    <trip id="41" depart="41.00" from="-gneE6" to="gneE5"/>
    <trip id="43" depart="43.00" from="-gneE7" to="gneE6"/>
    <trip id="44" depart="44.00" from="-gneE6" to="gneE7"/>
    <trip id="49" depart="49.00" from="-gneE5" to="gneE6"/>
    <trip id="50" depart="50.00" from="-gneE5" to="gneE6"/>
    <trip id="51" depart="51.00" from="-gneE5" to="gneE6"/>
    <trip id="52" depart="52.00" from="-gneE6" to="gneE5"/>
    <trip id="54" depart="54.00" from="-gneE6" to="gneE5"/>
    <trip id="56" depart="56.00" from="-gneE5" to="gneE7"/>
    <trip id="59" depart="59.00" from="-gneE7" to="gneE5"/>
    <trip id="60" depart="60.00" from="-gneE5" to="gneE6"/>
    <trip id="62" depart="62.00" from="-gneE6" to="gneE7"/>
    <trip id="64" depart="64.00" from="-gneE5" to="gneE7"/>
    <trip id="65" depart="65.00" from="-gneE6" to="gneE7"/>
    <trip id="66" depart="66.00" from="-gneE6" to="gneE7"/>
    <trip id="68" depart="68.00" from="-gneE7" to="gneE5"/>
    <trip id="70" depart="70.00" from="-gneE7" to="gneE5"/>
    <trip id="73" depart="73.00" from="-gneE5" to="gneE7"/>
    <trip id="74" depart="74.00" from="-gneE5" to="gneE7"/>
    <trip id="78" depart="78.00" from="-gneE5" to="gneE7"/>
    <trip id="82" depart="82.00" from="-gneE7" to="gneE5"/>
    <trip id="83" depart="83.00" from="-gneE6" to="gneE5"/>
    <trip id="84" depart="84.00" from="-gneE5" to="gneE7"/>
    <trip id="85" depart="85.00" from="-gneE6" to="gneE5"/>
    <trip id="86" depart="86.00" from="-gneE6" to="gneE5"/>
    <trip id="87" depart="87.00" from="-gneE7" to="gneE6"/>
    <trip id="89" depart="89.00" from="-gneE5" to="gneE6"/>
    <trip id="91" depart="91.00" from="-gneE5" to="gneE7"/>
    <trip id="92" depart="92.00" from="-gneE5" to="gneE6"/>
    <trip id="94" depart="94.00" from="-gneE6" to="gneE7"/>
    <trip id="95" depart="95.00" from="-gneE6" to="gneE7"/>
    <trip id="96" depart="96.00" from="-gneE6" to="gneE5"/>
    <trip id="97" depart="97.00" from="-gneE6" to="gneE5"/>
    <trip id="99" depart="99.00" from="-gneE7" to="gneE5"/>
    <trip id="100" depart="100.00" from="-gneE5" to="gneE7"/>
    <trip id="101" depart="101.00" from="-gneE6" to="gneE7"/>
    <trip id="103" depart="103.00" from="-gneE6" to="gneE5"/>
    <trip id="104" depart="104.00" from="-gneE5" to="gneE6"/>
    <trip id="108" depart="108.00" from="-gneE7" to="gneE5"/>
    <trip id="109" depart="109.00" from="-gneE7" to="gneE5"/>
    <trip id="110" depart="110.00" from="-gneE6" to="gneE7"/>
    <trip id="111" depart="111.00" from="-gneE7" to="gneE5"/>
    <trip id="114" depart="114.00" from="-gneE6" to="gneE5"/>
    <trip id="115" depart="115.00" from="-gneE6" to="gneE7"/>
    <trip id="117" depart="117.00" from="-gneE7" to="gneE5"/>
    <trip id="118" depart="118.00" from="-gneE6" to="gneE5"/>
    <trip id="119" depart="119.00" from="-gneE6" to="gneE7"/>
    <trip id="121" depart="121.00" from="-gneE5" to="gneE7"/>
    <trip id="122" depart="122.00" from="-gneE6" to="gneE5"/>
    <trip id="123" depart="123.00" from="-gneE7" to="gneE5"/>
    <trip id="127" depart="127.00" from="-gneE6" to="gneE5"/>
    <trip id="128" depart="128.00" from="-gneE6" to="gneE7"/>
    <trip id="129" depart="129.00" from="-gneE6" to="gneE7"/>
    <trip id="132" depart="132.00" from="-gneE7" to="gneE6"/>
    <trip id="133" depart="133.00" from="-gneE7" to="gneE5"/>
    <trip id="134" depart="134.00" from="-gneE6" to="gneE7"/>
    <trip id="135" depart="135.00" from="-gneE5" to="gneE6"/>
    <trip id="136" depart="136.00" from="-gneE5" to="gneE6"/>
    <trip id="137" depart="137.00" from="-gneE7" to="gneE6"/>
    <trip id="138" depart="138.00" from="-gneE5" to="gneE7"/>
    <trip id="140" depart="140.00" from="-gneE5" to="gneE6"/>
    <trip id="141" depart="141.00" from="-gneE6" to="gneE5"/>
    <trip id="142" depart="142.00" from="-gneE7" to="gneE5"/>
    <trip id="144" depart="144.00" from="-gneE5" to="gneE6"/>
    <trip id="146" depart="146.00" from="-gneE6" to="gneE7"/>
    <trip id="148" depart="148.00" from="-gneE6" to="gneE5"/>
    <trip id="149" depart="149.00" from="-gneE5" to="gneE6"/>
    <trip id="151" depart="151.00" from="-gneE5" to="gneE7"/>
    <trip id="152" depart="152.00" from="-gneE5" to="gneE7"/>
    <trip id="153" depart="153.00" from="-gneE6" to="gneE5"/>
    <trip id="154" depart="154.00" from="-gneE5" to="gneE7"/>
    <trip id="155" depart="155.00" from="-gneE7" to="gneE6"/>
    <trip id="157" depart="157.00" from="-gneE7" to="gneE6"/>
    <trip id="158" depart="158.00" from="-gneE5" to="gneE6"/>
    <trip id="159" depart="159.00" from="-gneE5" to="gneE7"/>
    <trip id="163" depart="163.00" from="-gneE5" to="gneE6"/>
    <trip id="165" depart="165.00" from="-gneE7" to="gneE5"/>
    <trip id="166" depart="166.00" from="-gneE5" to="gneE6"/>
    <trip id="167" depart="167.00" from="-gneE7" to="gneE6"/>
    <trip id="169" depart="169.00" from="-gneE5" to="gneE6"/>
    <trip id="171" depart="171.00" from="-gneE6" to="gneE7"/>
    <trip id="173" depart="173.00" from="-gneE7" to="gneE6"/>
    <trip id="175" depart="175.00" from="-gneE6" to="gneE5"/>
    <trip id="176" depart="176.00" from="-gneE5" to="gneE6"/>
    <trip id="177" depart="177.00" from="-gneE6" to="gneE5"/>
    <trip id="178" depart="178.00" from="-gneE7" to="gneE6"/>
    <trip id="181" depart="181.00" from="-gneE7" to="gneE5"/>
    <trip id="184" depart="184.00" from="-gneE6" to="gneE7"/>
    <trip id="185" depart="185.00" from="-gneE6" to="gneE5"/>
    <trip id="189" depart="189.00" from="-gneE6" to="gneE5"/>
    <trip id="190" depart="190.00" from="-gneE7" to="gneE5"/>
    <trip id="191" depart="191.00" from="-gneE5" to="gneE7"/>
    <trip id="192" depart="192.00" from="-gneE5" to="gneE6"/>
    <trip id="193" depart="193.00" from="-gneE5" to="gneE7"/>
    <trip id="194" depart="194.00" from="-gneE7" to="gneE5"/>
    <trip id="195" depart="195.00" from="-gneE6" to="gneE7"/>
    <trip id="197" depart="197.00" from="-gneE7" to="gneE5"/>
    <trip id="200" depart="200.00" from="-gneE5" to="gneE7"/>
    <trip id="201" depart="201.00" from="-gneE6" to="gneE5"/>
    <trip id="203" depart="203.00" from="-gneE5" to="gneE6"/>
    <trip id="205" depart="205.00" from="-gneE7" to="gneE5"/>
    <trip id="208" depart="208.00" from="-gneE7" to="gneE5"/>
    <trip id="209" depart="209.00" from="-gneE7" to="gneE5"/>
    <trip id="210" depart="210.00" from="-gneE7" to="gneE6"/>
    <trip id="211" depart="211.00" from="-gneE7" to="gneE5"/>
    <trip id="212" depart="212.00" from="-gneE5" to="gneE6"/>
    <trip id="213" depart="213.00" from="-gneE6" to="gneE5"/>
    <trip id="214" depart="214.00" from="-gneE5" to="gneE6"/>
    <trip id="215" depart="215.00" from="-gneE6" to="gneE5"/>
    <trip id="216" depart="216.00" from="-gneE6" to="gneE7"/>
    <trip id="217" depart="217.00" from="-gneE7" to="gneE6"/>
    <trip id="220" depart="220.00" from="-gneE7" to="gneE6"/>
    <trip id="222" depart="222.00" from="-gneE6" to="gneE7"/>
    <trip id="226" depart="226.00" from="-gneE7" to="gneE5"/>
    <trip id="229" depart="229.00" from="-gneE6" to="gneE5"/>
    <trip id="230" depart="230.00" from="-gneE7" to="gneE6"/>
    <trip id="232" depart="232.00" from="-gneE6" to="gneE5"/>
    <trip id="234" depart="234.00" from="-gneE5" to="gneE7"/>
    <trip id="235" depart="235.00" from="-gneE6" to="gneE7"/>
    <trip id="238" depart="238.00" from="-gneE6" to="gneE5"/>
    <trip id="239" depart="239.00" from="-gneE6" to="gneE5"/>
    <trip id="240" depart="240.00" from="-gneE7" to="gneE5"/>
    <trip id="241" depart="241.00" from="-gneE6" to="gneE5"/>
    <trip id="243" depart="243.00" from="-gneE5" to="gneE7"/>
    <trip id="244" depart="244.00" from="-gneE6" to="gneE5"/>
    <trip id="246" depart="246.00" from="-gneE6" to="gneE7"/>
    <trip id="247" depart="247.00" from="-gneE5" to="gneE7"/>
    <trip id="248" depart="248.00" from="-gneE5" to="gneE7"/>
    <trip id="250" depart="250.00" from="-gneE5" to="gneE7"/>
    <trip id="251" depart="251.00" from="-gneE5" to="gneE6"/>
    <trip id="252" depart="252.00" from="-gneE7" to="gneE5"/>
    <trip id="254" depart="254.00" from="-gneE5" to="gneE6"/>
    <trip id="255" depart="255.00" from="-gneE6" to="gneE5"/>
    <trip id="256" depart="256.00" from="-gneE7" to="gneE5"/>
    <trip id="257" depart="257.00" from="-gneE5" to="gneE7"/>
    <trip id="258" depart="258.00" from="-gneE6" to="gneE5"/>
    <trip id="259" depart="259.00" from="-gneE7" to="gneE6"/>
    <trip id="260" depart="260.00" from="-gneE7" to="gneE5"/>
    <trip id="261" depart="261.00" from="-gneE7" to="gneE5"/>
    <trip id="262" depart="262.00" from="-gneE7" to="gneE5"/>
    <trip id="264" depart="264.00" from="-gneE5" to="gneE6"/>
    <trip id="266" depart="266.00" from="-gneE5" to="gneE6"/>
    <trip id="267" depart="267.00" from="-gneE6" to="gneE5"/>
    <trip id="268" depart="268.00" from="-gneE5" to="gneE6"/>
    <trip id="269" depart="269.00" from="-gneE6" to="gneE7"/>
    <trip id="270" depart="270.00" from="-gneE6" to="gneE5"/>
    <trip id="271" depart="271.00" from="-gneE6" to="gneE5"/>
    <trip id="272" depart="272.00" from="-gneE6" to="gneE5"/>
    <trip id="273" depart="273.00" from="-gneE5" to="gneE6"/>
    <trip id="277" depart="277.00" from="-gneE5" to="gneE6"/>
    <trip id="278" depart="278.00" from="-gneE6" to="gneE7"/>
    <trip id="280" depart="280.00" from="-gneE5" to="gneE6"/>
    <trip id="282" depart="282.00" from="-gneE6" to="gneE5"/>
    <trip id="283" depart="283.00" from="-gneE5" to="gneE7"/>
    <trip id="284" depart="284.00" from="-gneE6" to="gneE5"/>
    <trip id="288" depart="288.00" from="-gneE6" to="gneE7"/>
    <trip id="292" depart="292.00" from="-gneE7" to="gneE5"/>
    <trip id="293" depart="293.00" from="-gneE7" to="gneE6"/>
    <trip id="294" depart="294.00" from="-gneE5" to="gneE7"/>
    <trip id="295" depart="295.00" from="-gneE7" to="gneE6"/>
    <trip id="296" depart="296.00" from="-gneE6" to="gneE5"/>
    <trip id="298" depart="298.00" from="-gneE7" to="gneE6"/>
    <trip id="300" depart="300.00" from="-gneE5" to="gneE7"/>
    <trip id="301" depart="301.00" from="-gneE7" to="gneE5"/>
    <trip id="302" depart="302.00" from="-gneE5" to="gneE6"/>
    <trip id="303" depart="303.00" from="-gneE7" to="gneE5"/>
    <trip id="304" depart="304.00" from="-gneE5" to="gneE7"/>
    <trip id="305" depart="305.00" from="-gneE7" to="gneE6"/>
    <trip id="306" depart="306.00" from="-gneE5" to="gneE6"/>
    <trip id="307" depart="307.00" from="-gneE5" to="gneE7"/>
    <trip id="308" depart="308.00" from="-gneE5" to="gneE7"/>
    <trip id="309" depart="309.00" from="-gneE6" to="gneE5"/>
    <trip id="310" depart="310.00" from="-gneE7" to="gneE6"/>
    <trip id="311" depart="311.00" from="-gneE5" to="gneE6"/>
    <trip id="313" depart="313.00" from="-gneE5" to="gneE6"/>
    <trip id="316" depart="316.00" from="-gneE5" to="gneE6"/>
    <trip id="317" depart="317.00" from="-gneE6" to="gneE5"/>
    <trip id="320" depart="320.00" from="-gneE5" to="gneE7"/>
    <trip id="322" depart="322.00" from="-gneE7" to="gneE6"/>
    <trip id="324" depart="324.00" from="-gneE5" to="gneE6"/>
    <trip id="325" depart="325.00" from="-gneE5" to="gneE6"/>
    <trip id="326" depart="326.00" from="-gneE7" to="gneE5"/>
    <trip id="327" depart="327.00" from="-gneE5" to="gneE7"/>
    <trip id="328" depart="328.00" from="-gneE7" to="gneE5"/>
    <trip id="329" depart="329.00" from="-gneE6" to="gneE7"/>
    <trip id="331" depart="331.00" from="-gneE7" to="gneE5"/>
    <trip id="332" depart="332.00" from="-gneE6" to="gneE7"/>
    <trip id="333" depart="333.00" from="-gneE7" to="gneE6"/>
    <trip id="335" depart="335.00" from="-gneE7" to="gneE6"/>
    <trip id="338" depart="338.00" from="-gneE6" to="gneE5"/>
    <trip id="339" depart="339.00" from="-gneE6" to="gneE5"/>
    <trip id="340" depart="340.00" from="-gneE7" to="gneE6"/>
    <trip id="342" depart="342.00" from="-gneE7" to="gneE6"/>
    <trip id="343" depart="343.00" from="-gneE5" to="gneE6"/>
    <trip id="347" depart="347.00" from="-gneE5" to="gneE7"/>
    <trip id="348" depart="348.00" from="-gneE5" to="gneE7"/>
    <trip id="350" depart="350.00" from="-gneE6" to="gneE7"/>
    <trip id="353" depart="353.00" from="-gneE7" to="gneE5"/>
    <trip id="354" depart="354.00" from="-gneE5" to="gneE7"/>
    <trip id="355" depart="355.00" from="-gneE5" to="gneE7"/>
    <trip id="356" depart="356.00" from="-gneE6" to="gneE7"/>
    <trip id="357" depart="357.00" from="-gneE6" to="gneE7"/>
    <trip id="358" depart="358.00" from="-gneE6" to="gneE7"/>
    <trip id="359" depart="359.00" from="-gneE7" to="gneE5"/>
    <trip id="360" depart="360.00" from="-gneE7" to="gneE5"/>
    <trip id="363" depart="363.00" from="-gneE5" to="gneE7"/>
    <trip id="364" depart="364.00" from="-gneE6" to="gneE5"/>
    <trip id="365" depart="365.00" from="-gneE5" to="gneE6"/>
    <trip id="367" depart="367.00" from="-gneE7" to="gneE6"/>
    <trip id="371" depart="371.00" from="-gneE6" to="gneE5"/>
    <trip id="372" depart="372.00" from="-gneE7" to="gneE5"/>
    <trip id="374" depart="374.00" from="-gneE7" to="gneE5"/>
    <trip id="375" depart="375.00" from="-gneE5" to="gneE6"/>
    <trip id="376" depart="376.00" from="-gneE5" to="gneE6"/>
    <trip id="379" depart="379.00" from="-gneE7" to="gneE5"/>
    <trip id="380" depart="380.00" from="-gneE6" to="gneE5"/>
    <trip id="381" depart="381.00" from="-gneE5" to="gneE6"/>
    <trip id="382" depart="382.00" from="-gneE7" to="gneE5"/>
    <trip id="383" depart="383.00" from="-gneE5" to="gneE6"/>
    <trip id="384" depart="384.00" from="-gneE7" to="gneE6"/>
    <trip id="386" depart="386.00" from="-gneE7" to="gneE6"/>
    <trip id="387" depart="387.00" from="-gneE7" to="gneE6"/>
    <trip id="389" depart="389.00" from="-gneE5" to="gneE6"/>
    <trip id="392" depart="392.00" from="-gneE6" to="gneE7"/>
    <trip id="393" depart="393.00" from="-gneE5" to="gneE7"/>
    <trip id="395" depart="395.00" from="-gneE5" to="gneE6"/>
    <trip id="396" depart="396.00" from="-gneE5" to="gneE6"/>
    <trip id="398" depart="398.00" from="-gneE7" to="gneE6"/>
    <trip id="401" depart="401.00" from="-gneE5" to="gneE6"/>
    <trip id="402" depart="402.00" from="-gneE6" to="gneE5"/>
    <trip id="403" depart="403.00" from="-gneE6" to="gneE5"/>
    <trip id="404" depart="404.00" from="-gneE5" to="gneE6"/>
    <trip id="407" depart="407.00" from="-gneE6" to="gneE5"/>
    <trip id="408" depart="408.00" from="-gneE5" to="gneE6"/>
    <trip id="409" depart="409.00" from="-gneE6" to="gneE7"/>
    <trip id="410" depart="410.00" from="-gneE7" to="gneE5"/>
    <trip id="411" depart="411.00" from="-gneE5" to="gneE6"/>
    <trip id="412" depart="412.00" from="-gneE5" to="gneE7"/>
    <trip id="413" depart="413.00" from="-gneE6" to="gneE5"/>
    <trip id="414" depart="414.00" from="-gneE6" to="gneE5"/>
    <trip id="415" depart="415.00" from="-gneE6" to="gneE5"/>
    <trip id="417" depart="417.00" from="-gneE5" to="gneE6"/>
    <trip id="418" depart="418.00" from="-gneE7" to="gneE6"/>
    <trip id="419" depart="419.00" from="-gneE5" to="gneE6"/>
    <trip id="420" depart="420.00" from="-gneE5" to="gneE7"/>
    <trip id="421" depart="421.00" from="-gneE7" to="gneE5"/>
    <trip id="422" depart="422.00" from="-gneE5" to="gneE6"/>
    <trip id="424" depart="424.00" from="-gneE7" to="gneE5"/>
    <trip id="425" depart="425.00" from="-gneE6" to="gneE7"/>
    <trip id="427" depart="427.00" from="-gneE7" to="gneE6"/>
    <trip id="428" depart="428.00" from="-gneE7" to="gneE5"/>
    <trip id="430" depart="430.00" from="-gneE7" to="gneE5"/>
    <trip id="431" depart="431.00" from="-gneE6" to="gneE7"/>
    <trip id="432" depart="432.00" from="-gneE5" to="gneE7"/>
    <trip id="436" depart="436.00" from="-gneE6" to="gneE5"/>
    <trip id="437" depart="437.00" from="-gneE6" to="gneE5"/>
    <trip id="438" depart="438.00" from="-gneE6" to="gneE5"/>
    <trip id="439" depart="439.00" from="-gneE5" to="gneE7"/>
    <trip id="440" depart="440.00" from="-gneE7" to="gneE6"/>
    <trip id="443" depart="443.00" from="-gneE7" to="gneE6"/>
    <trip id="444" depart="444.00" from="-gneE7" to="gneE6"/>
    <trip id="445" depart="445.00" from="-gneE7" to="gneE6"/>
    <trip id="446" depart="446.00" from="-gneE6" to="gneE7"/>
    <trip id="450" depart="450.00" from="-gneE7" to="gneE6"/>
    <trip id="452" depart="452.00" from="-gneE6" to="gneE5"/>
    <trip id="456" depart="456.00" from="-gneE5" to="gneE7"/>
    <trip id="458" depart="458.00" from="-gneE6" to="gneE7"/>
    <trip id="460" depart="460.00" from="-gneE5" to="gneE7"/>
    <trip id="461" depart="461.00" from="-gneE6" to="gneE5"/>
    <trip id="462" depart="462.00" from="-gneE6" to="gneE7"/>
    <trip id="467" depart="467.00" from="-gneE5" to="gneE6"/>
    <trip id="468" depart="468.00" from="-gneE6" to="gneE5"/>
    <trip id="469" depart="469.00" from="-gneE6" to="gneE7"/>
    <trip id="470" depart="470.00" from="-gneE5" to="gneE7"/>
    <trip id="471" depart="471.00" from="-gneE5" to="gneE7"/>
    <trip id="472" depart="472.00" from="-gneE6" to="gneE5"/>
    <trip id="473" depart="473.00" from="-gneE5" to="gneE7"/>
    <trip id="474" depart="474.00" from="-gneE5" to="gneE6"/>
    <trip id="475" depart="475.00" from="-gneE7" to="gneE5"/>
    <trip id="477" depart="477.00" from="-gneE6" to="gneE5"/>
    <trip id="478" depart="478.00" from="-gneE5" to="gneE6"/>
    <trip id="479" depart="479.00" from="-gneE6" to="gneE5"/>
    <trip id="480" depart="480.00" from="-gneE5" to="gneE7"/>
    <trip id="483" depart="483.00" from="-gneE7" to="gneE6"/>
    <trip id="485" depart="485.00" from="-gneE7" to="gneE6"/>
    <trip id="486" depart="486.00" from="-gneE7" to="gneE5"/>
    <trip id="487" depart="487.00" from="-gneE7" to="gneE6"/>
    <trip id="489" depart="489.00" from="-gneE5" to="gneE6"/>
    <trip id="490" depart="490.00" from="-gneE5" to="gneE6"/>
    <trip id="492" depart="492.00" from="-gneE6" to="gneE5"/>
    <trip id="494" depart="494.00" from="-gneE5" to="gneE6"/>
    <trip id="496" depart="496.00" from="-gneE7" to="gneE6"/>
    <trip id="497" depart="497.00" from="-gneE7" to="gneE5"/>
    <trip id="498" depart="498.00" from="-gneE5" to="gneE7"/>
    <trip id="499" depart="499.00" from="-gneE5" to="gneE7"/>
    <trip id="500" depart="500.00" from="-gneE6" to="gneE7"/>
    <trip id="501" depart="501.00" from="-gneE5" to="gneE6"/>
    <trip id="502" depart="502.00" from="-gneE5" to="gneE6"/>
    <trip id="504" depart="504.00" from="-gneE5" to="gneE7"/>
    <trip id="505" depart="505.00" from="-gneE5" to="gneE6"/>
    <trip id="506" depart="506.00" from="-gneE5" to="gneE7"/>
    <trip id="508" depart="508.00" from="-gneE5" to="gneE7"/>
    <trip id="513" depart="513.00" from="-gneE7" to="gneE6"/>
    <trip id="515" depart="515.00" from="-gneE6" to="gneE5"/>
    <trip id="517" depart="517.00" from="-gneE6" to="gneE7"/>
    <trip id="520" depart="520.00" from="-gneE7" to="gneE6"/>
    <trip id="521" depart="521.00" from="-gneE7" to="gneE5"/>
    <trip id="522" depart="522.00" from="-gneE6" to="gneE5"/>
    <trip id="524" depart="524.00" from="-gneE6" to="gneE7"/>
    <trip id="525" depart="525.00" from="-gneE5" to="gneE7"/>
    <trip id="526" depart="526.00" from="-gneE6" to="gneE7"/>
    <trip id="527" depart="527.00" from="-gneE5" to="gneE6"/>
    <trip id="530" depart="530.00" from="-gneE6" to="gneE7"/>
    <trip id="531" depart="531.00" from="-gneE5" to="gneE6"/>
    <trip id="535" depart="535.00" from="-gneE5" to="gneE7"/>
    <trip id="536" depart="536.00" from="-gneE7" to="gneE5"/>
    <trip id="537" depart="537.00" from="-gneE7" to="gneE6"/>
    <trip id="539" depart="539.00" from="-gneE6" to="gneE5"/>
    <trip id="540" depart="540.00" from="-gneE6" to="gneE7"/>
    <trip id="542" depart="542.00" from="-gneE5" to="gneE7"/>
    <trip id="545" depart="545.00" from="-gneE5" to="gneE6"/>
    <trip id="546" depart="546.00" from="-gneE6" to="gneE7"/>
    <trip id="552" depart="552.00" from="-gneE6" to="gneE5"/>
    <trip id="553" depart="553.00" from="-gneE5" to="gneE7"/>
    <trip id="554" depart="554.00" from="-gneE7" to="gneE5"/>
    <trip id="556" depart="556.00" from="-gneE5" to="gneE6"/>
    <trip id="559" depart="559.00" from="-gneE5" to="gneE6"/>
    <trip id="560" depart="560.00" from="-gneE7" to="gneE6"/>
    <trip id="561" depart="561.00" from="-gneE7" to="gneE5"/>
    <trip id="563" depart="563.00" from="-gneE7" to="gneE5"/>
    <trip id="564" depart="564.00" from="-gneE6" to="gneE5"/>
    <trip id="565" depart="565.00" from="-gneE6" to="gneE7"/>
    <trip id="570" depart="570.00" from="-gneE5" to="gneE7"/>
    <trip id="571" depart="571.00" from="-gneE7" to="gneE5"/>
    <trip id="573" depart="573.00" from="-gneE5" to="gneE6"/>
    <trip id="575" depart="575.00" from="-gneE6" to="gneE5"/>
    <trip id="578" depart="578.00" from="-gneE5" to="gneE7"/>
    <trip id="579" depart="579.00" from="-gneE5" to="gneE7"/>
    <trip id="581" depart="581.00" from="-gneE5" to="gneE6"/>
    <trip id="582" depart="582.00" from="-gneE5" to="gneE7"/>
    <trip id="583" depart="583.00" from="-gneE6" to="gneE5"/>
    <trip id="584" depart="584.00" from="-gneE5" to="gneE6"/>
    <trip id="586" depart="586.00" from="-gneE6" to="gneE5"/>
    <trip id="587" depart="587.00" from="-gneE5" to="gneE7"/>
    <trip id="589" depart="589.00" from="-gneE7" to="gneE6"/>
    <trip id="591" depart="591.00" from="-gneE7" to="gneE6"/>
    <trip id="592" depart="592.00" from="-gneE6" to="gneE7"/>
    <trip id="593" depart="593.00" from="-gneE5" to="gneE7"/>
    <trip id="594" depart="594.00" from="-gneE7" to="gneE6"/>
    <trip id="596" depart="596.00" from="-gneE6" to="gneE5"/>
    <trip id="597" depart="597.00" from="-gneE7" to="gneE6"/>
    <trip id="598" depart="598.00" from="-gneE7" to="gneE5"/>
    <trip id="601" depart="601.00" from="-gneE5" to="gneE6"/>
    <trip id="602" depart="602.00" from="-gneE5" to="gneE7"/>
    <trip id="603" depart="603.00" from="-gneE7" to="gneE6"/>
    <trip id="604" depart="604.00" from="-gneE7" to="gneE6"/>
    <trip id="605" depart="605.00" from="-gneE6" to="gneE7"/>
    <trip id="606" depart="606.00" from="-gneE6" to="gneE7"/>
    <trip id="609" depart="609.00" from="-gneE5" to="gneE7"/>
    <trip id="610" depart="610.00" from="-gneE5" to="gneE6"/>
    <trip id="611" depart="611.00" from="-gneE5" to="gneE7"/>
    <trip id="612" depart="612.00" from="-gneE7" to="gneE6"/>
    <trip id="613" depart="613.00" from="-gneE6" to="gneE7"/>
    <trip id="614" depart="614.00" from="-gneE6" to="gneE5"/>
    <trip id="615" depart="615.00" from="-gneE7" to="gneE5"/>
    <trip id="616" depart="616.00" from="-gneE7" to="gneE5"/>
    <trip id="619" depart="619.00" from="-gneE6" to="gneE5"/>
    <trip id="621" depart="621.00" from="-gneE6" to="gneE5"/>
    <trip id="622" depart="622.00" from="-gneE5" to="gneE7"/>
    <trip id="623" depart="623.00" from="-gneE7" to="gneE6"/>
    <trip id="624" depart="624.00" from="-gneE7" to="gneE6"/>
    <trip id="625" depart="625.00" from="-gneE7" to="gneE5"/>
    <trip id="629" depart="629.00" from="-gneE6" to="gneE5"/>
    <trip id="632" depart="632.00" from="-gneE5" to="gneE6"/>
    <trip id="633" depart="633.00" from="-gneE6" to="gneE5"/>
    <trip id="634" depart="634.00" from="-gneE5" to="gneE7"/>
    <trip id="635" depart="635.00" from="-gneE5" to="gneE6"/>
    <trip id="638" depart="638.00" from="-gneE5" to="gneE7"/>
    <trip id="639" depart="639.00" from="-gneE5" to="gneE7"/>
    <trip id="640" depart="640.00" from="-gneE6" to="gneE7"/>
    <trip id="641" depart="641.00" from="-gneE5" to="gneE6"/>
    <trip id="642" depart="642.00" from="-gneE7" to="gneE6"/>
    <trip id="645" depart="645.00" from="-gneE5" to="gneE6"/>
    <trip id="646" depart="646.00" from="-gneE5" to="gneE6"/>
    <trip id="648" depart="648.00" from="-gneE5" to="gneE7"/>
    <trip id="650" depart="650.00" from="-gneE6" to="gneE5"/>
    <trip id="653" depart="653.00" from="-gneE5" to="gneE6"/>
    <trip id="654" depart="654.00" from="-gneE7" to="gneE6"/>
    <trip id="656" depart="656.00" from="-gneE6" to="gneE5"/>
    <trip id="658" depart="658.00" from="-gneE5" to="gneE6"/>
    <trip id="661" depart="661.00" from="-gneE7" to="gneE6"/>
    <trip id="662" depart="662.00" from="-gneE7" to="gneE6"/>
    <trip id="663" depart="663.00" from="-gneE5" to="gneE6"/>
    <trip id="664" depart="664.00" from="-gneE6" to="gneE7"/>
    <trip id="665" depart="665.00" from="-gneE6" to="gneE5"/>
    <trip id="666" depart="666.00" from="-gneE6" to="gneE5"/>
    <trip id="667" depart="667.00" from="-gneE5" to="gneE6"/>
    <trip id="668" depart="668.00" from="-gneE6" to="gneE5"/>
    <trip id="669" depart="669.00" from="-gneE5" to="gneE7"/>
    <trip id="670" depart="670.00" from="-gneE6" to="gneE5"/>
    <trip id="671" depart="671.00" from="-gneE6" to="gneE5"/>
    <trip id="673" depart="673.00" from="-gneE7" to="gneE5"/>
    <trip id="676" depart="676.00" from="-gneE7" to="gneE6"/>
    <trip id="678" depart="678.00" from="-gneE5" to="gneE6"/>
    <trip id="680" depart="680.00" from="-gneE6" to="gneE5"/>
    <trip id="683" depart="683.00" from="-gneE5" to="gneE7"/>
    <trip id="684" depart="684.00" from="-gneE5" to="gneE7"/>
    <trip id="685" depart="685.00" from="-gneE7" to="gneE6"/>
    <trip id="686" depart="686.00" from="-gneE7" to="gneE6"/>
    <trip id="687" depart="687.00" from="-gneE5" to="gneE7"/>
    <trip id="688" depart="688.00" from="-gneE5" to="gneE6"/>
    <trip id="690" depart="690.00" from="-gneE5" to="gneE7"/>
    <trip id="693" depart="693.00" from="-gneE5" to="gneE7"/>
    <trip id="695" depart="695.00" from="-gneE7" to="gneE5"/>
    <trip id="696" depart="696.00" from="-gneE6" to="gneE5"/>
    <trip id="699" depart="699.00" from="-gneE7" to="gneE6"/>
    <trip id="700" depart="700.00" from="-gneE6" to="gneE5"/>
    <trip id="701" depart="701.00" from="-gneE6" to="gneE7"/>
    <trip id="702" depart="702.00" from="-gneE7" to="gneE5"/>
    <trip id="704" depart="704.00" from="-gneE6" to="gneE7"/>
    <trip id="705" depart="705.00" from="-gneE5" to="gneE6"/>
    <trip id="706" depart="706.00" from="-gneE6" to="gneE5"/>
    <trip id="708" depart="708.00" from="-gneE6" to="gneE5"/>
    <trip id="710" depart="710.00" from="-gneE7" to="gneE5"/>
    <trip id="712" depart="712.00" from="-gneE6" to="gneE5"/>
    <trip id="713" depart="713.00" from="-gneE6" to="gneE7"/>
    <trip id="714" depart="714.00" from="-gneE7" to="gneE5"/>
    <trip id="717" depart="717.00" from="-gneE6" to="gneE5"/>
    <trip id="718" depart="718.00" from="-gneE5" to="gneE7"/>
    <trip id="720" depart="720.00" from="-gneE6" to="gneE5"/>
    <trip id="721" depart="721.00" from="-gneE6" to="gneE5"/>
    <trip id="723" depart="723.00" from="-gneE7" to="gneE5"/>
    <trip id="727" depart="727.00" from="-gneE5" to="gneE6"/>
    <trip id="728" depart="728.00" from="-gneE5" to="gneE6"/>
    <trip id="731" depart="731.00" from="-gneE5" to="gneE7"/>
    <trip id="733" depart="733.00" from="-gneE5" to="gneE7"/>
    <trip id="734" depart="734.00" from="-gneE7" to="gneE6"/>
    <trip id="735" depart="735.00" from="-gneE7" to="gneE6"/>
    <trip id="736" depart="736.00" from="-gneE7" to="gneE5"/>
    <trip id="737" depart="737.00" from="-gneE6" to="gneE7"/>
    <trip id="738" depart="738.00" from="-gneE7" to="gneE6"/>
    <trip id="739" depart="739.00" from="-gneE6" to="gneE7"/>
    <trip id="740" depart="740.00" from="-gneE5" to="gneE7"/>
    <trip id="742" depart="742.00" from="-gneE6" to="gneE5"/>