<configuration>
    <input>
        <net-file value="cycle.net.xml"/>
        <route-files value="demo.rou.xml"/>
    </input>
</configuration>
