<?xml version="1.0" encoding="UTF-8"?>

<!-- generated on Thu Aug 20 02:25:06 2020 by Eclipse SUMO duarouter Version 1.4.0
<configuration xmlns:xsi="http://www.w3.org/2001/XMLSchema-instance" xsi:noNamespaceSchemaLocation="http://sumo.dlr.de/xsd/duarouterConfiguration.xsd">

    <input>
        <net-file value="4way.net.xml"/>
        <route-files value="trips.trips.xml"/>
    </input>

    <output>
        <output-file value="4way.rou.xml"/>
        <alternatives-output value="4way.rou.alt.xml"/>
    </output>

    <time>
        <begin value="0"/>
        <end value="500.0"/>
    </time>

    <report>
        <no-warnings value="true"/>
        <ignore-errors value="true"/>
        <no-step-log value="true"/>
    </report>

</configuration>
-->

<routes xmlns:xsi="http://www.w3.org/2001/XMLSchema-instance" xsi:noNamespaceSchemaLocation="http://sumo.dlr.de/xsd/routes_file.xsd">
    <vehicle id="0" depart="0.00">
        <route edges="-gneE9 -gneE14"/>
    </vehicle>
    <vehicle id="2" depart="2.00">
        <route edges="-gneE12 gneE10"/>
    </vehicle>
    <vehicle id="3" depart="3.00">
        <route edges="-gneE12 gneE9"/>
    </vehicle>
    <vehicle id="4" depart="4.00">
        <route edges="-gneE9 gneE10"/>
    </vehicle>
    <vehicle id="5" depart="5.00">
        <route edges="-gneE9 gneE12"/>
    </vehicle>
    <vehicle id="8" depart="8.00">
        <route edges="-gneE10 -gneE14"/>
    </vehicle>
    <vehicle id="10" depart="10.00">
        <route edges="-gneE9 -gneE14"/>
    </vehicle>
    <vehicle id="11" depart="11.00">
        <route edges="-gneE12 gneE10"/>
    </vehicle>
    <vehicle id="12" depart="12.00">
        <route edges="-gneE10 gneE12"/>
    </vehicle>
    <vehicle id="13" depart="13.00">
        <route edges="-gneE10 -gneE14"/>
    </vehicle>
    <vehicle id="14" depart="14.00">
        <route edges="gneE14 gneE10"/>
    </vehicle>
    <vehicle id="15" depart="15.00">
        <route edges="gneE14 gneE10"/>
    </vehicle>
    <vehicle id="16" depart="16.00">
        <route edges="-gneE12 gneE9"/>
    </vehicle>
    <vehicle id="17" depart="17.00">
        <route edges="-gneE12 gneE10"/>
    </vehicle>
    <vehicle id="18" depart="18.00">
        <route edges="-gneE12 -gneE14"/>
    </vehicle>
    <vehicle id="19" depart="19.00">
        <route edges="-gneE12 -gneE14"/>
    </vehicle>
    <vehicle id="21" depart="21.00">
        <route edges="gneE14 gneE12"/>
    </vehicle>
    <vehicle id="22" depart="22.00">
        <route edges="-gneE10 -gneE14"/>
    </vehicle>
    <vehicle id="23" depart="23.00">
        <route edges="gneE14 gneE10"/>
    </vehicle>
    <vehicle id="24" depart="24.00">
        <route edges="-gneE10 -gneE14"/>
    </vehicle>
    <vehicle id="25" depart="25.00">
        <route edges="-gneE10 gneE9"/>
    </vehicle>
    <vehicle id="26" depart="26.00">
        <route edges="-gneE10 -gneE14"/>
    </vehicle>
    <vehicle id="28" depart="28.00">
        <route edges="gneE14 gneE10"/>
    </vehicle>
    <vehicle id="30" depart="30.00">
        <route edges="-gneE9 gneE10"/>
    </vehicle>
    <vehicle id="31" depart="31.00">
        <route edges="-gneE10 gneE9"/>
    </vehicle>
    <vehicle id="33" depart="33.00">
        <route edges="-gneE10 gneE9"/>
    </vehicle>
    <vehicle id="34" depart="34.00">
        <route edges="-gneE10 -gneE14"/>
    </vehicle>
    <vehicle id="35" depart="35.00">
        <route edges="-gneE10 -gneE14"/>
    </vehicle>
    <vehicle id="36" depart="36.00">
        <route edges="-gneE10 gneE12"/>
    </vehicle>
    <vehicle id="37" depart="37.00">
        <route edges="gneE14 gneE10"/>
    </vehicle>
    <vehicle id="38" depart="38.00">
        <route edges="-gneE9 gneE10"/>
    </vehicle>
    <vehicle id="39" depart="39.00">
        <route edges="-gneE12 -gneE14"/>
    </vehicle>
    <vehicle id="40" depart="40.00">
        <route edges="-gneE10 gneE12"/>
    </vehicle>
    <vehicle id="41" depart="41.00">
        <route edges="-gneE9 gneE10"/>
    </vehicle>
    <vehicle id="42" depart="42.00">
        <route edges="-gneE12 gneE10"/>
    </vehicle>
    <vehicle id="43" depart="43.00">
        <route edges="gneE14 gneE10"/>
    </vehicle>
    <vehicle id="44" depart="44.00">
        <route edges="gneE14 gneE9"/>
    </vehicle>
    <vehicle id="46" depart="46.00">
        <route edges="-gneE10 gneE12"/>
    </vehicle>
    <vehicle id="47" depart="47.00">
        <route edges="-gneE10 gneE12"/>
    </vehicle>
    <vehicle id="49" depart="49.00">
        <route edges="-gneE10 gneE12"/>
    </vehicle>
    <vehicle id="51" depart="51.00">
        <route edges="-gneE9 -gneE14"/>
    </vehicle>
    <vehicle id="52" depart="52.00">
        <route edges="-gneE9 -gneE14"/>
    </vehicle>
    <vehicle id="53" depart="53.00">
        <route edges="gneE14 gneE9"/>
    </vehicle>
    <vehicle id="55" depart="55.00">
        <route edges="-gneE12 gneE10"/>
    </vehicle>
    <vehicle id="57" depart="57.00">
        <route edges="-gneE10 gneE12"/>
    </vehicle>
    <vehicle id="59" depart="59.00">
        <route edges="-gneE9 -gneE14"/>
    </vehicle>
    <vehicle id="60" depart="60.00">
        <route edges="-gneE12 gneE9"/>
    </vehicle>
    <vehicle id="61" depart="61.00">
        <route edges="-gneE9 -gneE14"/>
    </vehicle>
    <vehicle id="63" depart="63.00">
        <route edges="-gneE12 gneE10"/>
    </vehicle>
    <vehicle id="64" depart="64.00">
        <route edges="-gneE12 gneE9"/>
    </vehicle>
    <vehicle id="65" depart="65.00">
        <route edges="-gneE12 -gneE14"/>
    </vehicle>
    <vehicle id="66" depart="66.00">
        <route edges="gneE14 gneE9"/>
    </vehicle>
    <vehicle id="67" depart="67.00">
        <route edges="-gneE10 -gneE14"/>
    </vehicle>
    <vehicle id="68" depart="68.00">
        <route edges="-gneE9 gneE10"/>
    </vehicle>
    <vehicle id="69" depart="69.00">
        <route edges="-gneE10 gneE9"/>
    </vehicle>
    <vehicle id="70" depart="70.00">
        <route edges="gneE14 gneE12"/>
    </vehicle>
    <vehicle id="71" depart="71.00">
        <route edges="-gneE12 gneE10"/>
    </vehicle>
    <vehicle id="73" depart="73.00">
        <route edges="gneE14 gneE10"/>
    </vehicle>
    <vehicle id="74" depart="74.00">
        <route edges="-gneE12 gneE9"/>
    </vehicle>
    <vehicle id="75" depart="75.00">
        <route edges="-gneE10 gneE12"/>
    </vehicle>
    <vehicle id="76" depart="76.00">
        <route edges="gneE14 gneE10"/>
    </vehicle>
    <vehicle id="79" depart="79.00">
        <route edges="gneE14 gneE12"/>
    </vehicle>
    <vehicle id="80" depart="80.00">
        <route edges="-gneE10 -gneE14"/>
    </vehicle>
    <vehicle id="81" depart="81.00">
        <route edges="-gneE12 -gneE14"/>
    </vehicle>
    <vehicle id="82" depart="82.00">
        <route edges="-gneE10 -gneE14"/>
    </vehicle>
    <vehicle id="84" depart="84.00">
        <route edges="-gneE10 -gneE14"/>
    </vehicle>
    <vehicle id="85" depart="85.00">
        <route edges="-gneE10 gneE12"/>
    </vehicle>
    <vehicle id="86" depart="86.00">
        <route edges="-gneE10 -gneE14"/>
    </vehicle>
    <vehicle id="87" depart="87.00">
        <route edges="-gneE9 gneE10"/>
    </vehicle>
    <vehicle id="88" depart="88.00">
        <route edges="-gneE12 -gneE14"/>
    </vehicle>
    <vehicle id="89" depart="89.00">
        <route edges="gneE14 gneE12"/>
    </vehicle>
    <vehicle id="90" depart="90.00">
        <route edges="-gneE10 -gneE14"/>
    </vehicle>
    <vehicle id="92" depart="92.00">
        <route edges="-gneE9 gneE10"/>
    </vehicle>
    <vehicle id="94" depart="94.00">
        <route edges="gneE14 gneE10"/>
    </vehicle>
    <vehicle id="95" depart="95.00">
        <route edges="gneE14 gneE12"/>
    </vehicle>
    <vehicle id="96" depart="96.00">
        <route edges="-gneE9 gneE10"/>
    </vehicle>
    <vehicle id="97" depart="97.00">
        <route edges="-gneE9 -gneE14"/>
    </vehicle>
    <vehicle id="99" depart="99.00">
        <route edges="-gneE10 gneE12"/>
    </vehicle>
    <vehicle id="100" depart="100.00">
        <route edges="-gneE9 gneE12"/>
    </vehicle>
    <vehicle id="101" depart="101.00">
        <route edges="-gneE10 -gneE14"/>
    </vehicle>
    <vehicle id="102" depart="102.00">
        <route edges="-gneE10 gneE12"/>
    </vehicle>
    <vehicle id="103" depart="103.00">
        <route edges="-gneE9 gneE12"/>
    </vehicle>
    <vehicle id="104" depart="104.00">
        <route edges="-gneE10 gneE9"/>
    </vehicle>
    <vehicle id="105" depart="105.00">
        <route edges="gneE14 gneE10"/>
    </vehicle>
    <vehicle id="107" depart="107.00">
        <route edges="gneE14 gneE12"/>
    </vehicle>
    <vehicle id="108" depart="108.00">
        <route edges="-gneE12 -gneE14"/>
    </vehicle>
    <vehicle id="109" depart="109.00">
        <route edges="-gneE9 -gneE14"/>
    </vehicle>
    <vehicle id="110" depart="110.00">
        <route edges="-gneE9 gneE10"/>
    </vehicle>
    <vehicle id="111" depart="111.00">
        <route edges="gneE14 gneE12"/>
    </vehicle>
    <vehicle id="113" depart="113.00">
        <route edges="gneE14 gneE9"/>
    </vehicle>
    <vehicle id="114" depart="114.00">
        <route edges="-gneE10 -gneE14"/>
    </vehicle>
    <vehicle id="116" depart="116.00">
        <route edges="-gneE12 gneE10"/>
    </vehicle>
    <vehicle id="119" depart="119.00">
        <route edges="-gneE10 -gneE14"/>
    </vehicle>
    <vehicle id="121" depart="121.00">
        <route edges="-gneE9 gneE12"/>
    </vehicle>
    <vehicle id="122" depart="122.00">
        <route edges="gneE14 gneE10"/>
    </vehicle>
    <vehicle id="123" depart="123.00">
        <route edges="gneE14 gneE9"/>
    </vehicle>
    <vehicle id="124" depart="124.00">
        <route edges="-gneE10 gneE12"/>
    </vehicle>
    <vehicle id="125" depart="125.00">
        <route edges="gneE14 gneE10"/>
    </vehicle>
    <vehicle id="126" depart="126.00">
        <route edges="-gneE12 -gneE14"/>
    </vehicle>
    <vehicle id="127" depart="127.00">
        <route edges="-gneE10 -gneE14"/>
    </vehicle>
    <vehicle id="129" depart="129.00">
        <route edges="-gneE12 gneE10"/>
    </vehicle>
    <vehicle id="132" depart="132.00">
        <route edges="-gneE10 -gneE14"/>
    </vehicle>
    <vehicle id="134" depart="134.00">
        <route edges="-gneE9 gneE10"/>
    </vehicle>
    <vehicle id="135" depart="135.00">
        <route edges="-gneE10 -gneE14"/>
    </vehicle>
    <vehicle id="136" depart="136.00">
        <route edges="-gneE12 gneE9"/>
    </vehicle>
    <vehicle id="138" depart="138.00">
        <route edges="-gneE10 -gneE14"/>
    </vehicle>
    <vehicle id="139" depart="139.00">
        <route edges="gneE14 gneE10"/>
    </vehicle>
    <vehicle id="141" depart="141.00">
        <route edges="-gneE10 gneE9"/>
    </vehicle>
    <vehicle id="142" depart="142.00">
        <route edges="-gneE9 gneE10"/>
    </vehicle>
    <vehicle id="144" depart="144.00">
        <route edges="-gneE12 gneE10"/>
    </vehicle>
    <vehicle id="146" depart="146.00">
        <route edges="-gneE10 -gneE14"/>
    </vehicle>
    <vehicle id="147" depart="147.00">
        <route edges="gneE14 gneE9"/>
    </vehicle>
    <vehicle id="148" depart="148.00">
        <route edges="-gneE12 gneE10"/>
    </vehicle>
    <vehicle id="150" depart="150.00">
        <route edges="-gneE9 -gneE14"/>
    </vehicle>
    <vehicle id="151" depart="151.00">
        <route edges="-gneE12 -gneE14"/>
    </vehicle>
    <vehicle id="154" depart="154.00">
        <route edges="-gneE9 gneE10"/>
    </vehicle>
    <vehicle id="155" depart="155.00">
        <route edges="gneE14 gneE10"/>
    </vehicle>
    <vehicle id="156" depart="156.00">
        <route edges="-gneE10 -gneE14"/>
    </vehicle>
    <vehicle id="157" depart="157.00">
        <route edges="gneE14 gneE10"/>
    </vehicle>
    <vehicle id="158" depart="158.00">
        <route edges="-gneE12 -gneE14"/>
    </vehicle>
    <vehicle id="161" depart="161.00">
        <route edges="gneE14 gneE12"/>
    </vehicle>
    <vehicle id="162" depart="162.00">
        <route edges="-gneE9 gneE12"/>
    </vehicle>
    <vehicle id="163" depart="163.00">
        <route edges="-gneE12 -gneE14"/>
    </vehicle>
    <vehicle id="164" depart="164.00">
        <route edges="gneE14 gneE12"/>
    </vehicle>
    <vehicle id="165" depart="165.00">
        <route edges="-gneE9 gneE10"/>
    </vehicle>
    <vehicle id="168" depart="168.00">
        <route edges="-gneE12 gneE10"/>
    </vehicle>
    <vehicle id="170" depart="170.00">
        <route edges="-gneE12 -gneE14"/>
    </vehicle>
    <vehicle id="172" depart="172.00">
        <route edges="-gneE12 gneE10"/>
    </vehicle>
    <vehicle id="173" depart="173.00">
        <route edges="gneE14 gneE12"/>
    </vehicle>
    <vehicle id="174" depart="174.00">
        <route edges="-gneE10 gneE12"/>
    </vehicle>
    <vehicle id="175" depart="175.00">
        <route edges="gneE14 gneE10"/>
    </vehicle>
    <vehicle id="176" depart="176.00">
        <route edges="-gneE12 -gneE14"/>
    </vehicle>
    <vehicle id="180" depart="180.00">
        <route edges="-gneE10 -gneE14"/>
    </vehicle>
    <vehicle id="181" depart="181.00">
        <route edges="gneE14 gneE10"/>
    </vehicle>
    <vehicle id="184" depart="184.00">
        <route edges="gneE14 gneE10"/>
    </vehicle>
    <vehicle id="185" depart="185.00">
        <route edges="gneE14 gneE10"/>
    </vehicle>
    <vehicle id="187" depart="187.00">
        <route edges="-gneE12 -gneE14"/>
    </vehicle>
    <vehicle id="188" depart="188.00">
        <route edges="-gneE10 gneE9"/>
    </vehicle>
    <vehicle id="189" depart="189.00">
        <route edges="-gneE10 gneE9"/>
    </vehicle>
    <vehicle id="190" depart="190.00">
        <route edges="gneE14 gneE10"/>
    </vehicle>
    <vehicle id="191" depart="191.00">
        <route edges="-gneE10 gneE12"/>
    </vehicle>
    <vehicle id="192" depart="192.00">
        <route edges="gneE14 gneE12"/>
    </vehicle>
    <vehicle id="193" depart="193.00">
        <route edges="-gneE12 gneE9"/>
    </vehicle>
    <vehicle id="194" depart="194.00">
        <route edges="gneE14 gneE12"/>
    </vehicle>
    <vehicle id="195" depart="195.00">
        <route edges="-gneE10 -gneE14"/>
    </vehicle>
    <vehicle id="196" depart="196.00">
        <route edges="-gneE10 gneE12"/>
    </vehicle>
    <vehicle id="198" depart="198.00">
        <route edges="-gneE10 gneE9"/>
    </vehicle>
    <vehicle id="199" depart="199.00">
        <route edges="gneE14 gneE10"/>
    </vehicle>
    <vehicle id="200" depart="200.00">
        <route edges="-gneE10 gneE12"/>
    </vehicle>
    <vehicle id="201" depart="201.00">
        <route edges="gneE14 gneE10"/>
    </vehicle>
    <vehicle id="203" depart="203.00">
        <route edges="-gneE10 gneE12"/>
    </vehicle>
    <vehicle id="204" depart="204.00">
        <route edges="-gneE10 gneE9"/>
    </vehicle>
    <vehicle id="205" depart="205.00">
        <route edges="-gneE9 -gneE14"/>
    </vehicle>
    <vehicle id="206" depart="206.00">
        <route edges="-gneE12 gneE10"/>
    </vehicle>
    <vehicle id="207" depart="207.00">
        <route edges="-gneE9 gneE10"/>
    </vehicle>
    <vehicle id="208" depart="208.00">
        <route edges="-gneE9 -gneE14"/>
    </vehicle>
    <vehicle id="209" depart="209.00">
        <route edges="gneE14 gneE12"/>
    </vehicle>
    <vehicle id="210" depart="210.00">
        <route edges="gneE14 gneE10"/>
    </vehicle>
    <vehicle id="211" depart="211.00">
        <route edges="-gneE12 gneE9"/>
    </vehicle>
    <vehicle id="212" depart="212.00">
        <route edges="gneE14 gneE9"/>
    </vehicle>
    <vehicle id="214" depart="214.00">
        <route edges="-gneE10 gneE9"/>
    </vehicle>
    <vehicle id="215" depart="215.00">
        <route edges="gneE14 gneE12"/>
    </vehicle>
    <vehicle id="216" depart="216.00">
        <route edges="gneE14 gneE12"/>
    </vehicle>
    <vehicle id="218" depart="218.00">
        <route edges="gneE14 gneE9"/>
    </vehicle>
    <vehicle id="219" depart="219.00">
        <route edges="-gneE9 -gneE14"/>
    </vehicle>
    <vehicle id="220" depart="220.00">
        <route edges="-gneE9 gneE12"/>
    </vehicle>
    <vehicle id="221" depart="221.00">
        <route edges="gneE14 gneE9"/>
    </vehicle>
    <vehicle id="222" depart="222.00">
        <route edges="-gneE9 gneE12"/>
    </vehicle>
    <vehicle id="225" depart="225.00">
        <route edges="gneE14 gneE10"/>
    </vehicle>
    <vehicle id="226" depart="226.00">
        <route edges="gneE14 gneE10"/>
    </vehicle>
    <vehicle id="227" depart="227.00">
        <route edges="-gneE10 -gneE14"/>
    </vehicle>
    <vehicle id="229" depart="229.00">
        <route edges="gneE14 gneE10"/>
    </vehicle>
    <vehicle id="230" depart="230.00">
        <route edges="gneE14 gneE10"/>
    </vehicle>
    <vehicle id="234" depart="234.00">
        <route edges="-gneE9 gneE10"/>
    </vehicle>
    <vehicle id="236" depart="236.00">
        <route edges="gneE14 gneE12"/>
    </vehicle>
    <vehicle id="238" depart="238.00">
        <route edges="gneE14 gneE12"/>
    </vehicle>
    <vehicle id="239" depart="239.00">
        <route edges="-gneE12 gneE9"/>
    </vehicle>
    <vehicle id="240" depart="240.00">
        <route edges="-gneE10 -gneE14"/>
    </vehicle>
    <vehicle id="241" depart="241.00">
        <route edges="-gneE10 gneE12"/>
    </vehicle>
    <vehicle id="243" depart="243.00">
        <route edges="-gneE9 -gneE14"/>
    </vehicle>
    <vehicle id="244" depart="244.00">
        <route edges="gneE14 gneE9"/>
    </vehicle>
    <vehicle id="246" depart="246.00">
        <route edges="-gneE12 -gneE14"/>
    </vehicle>
    <vehicle id="249" depart="249.00">
        <route edges="-gneE12 gneE9"/>
    </vehicle>
    <vehicle id="254" depart="254.00">
        <route edges="gneE14 gneE10"/>
    </vehicle>
    <vehicle id="255" depart="255.00">
        <route edges="gneE14 gneE10"/>
    </vehicle>
    <vehicle id="256" depart="256.00">
        <route edges="gneE14 gneE12"/>
    </vehicle>
    <vehicle id="257" depart="257.00">
        <route edges="-gneE10 gneE12"/>
    </vehicle>
    <vehicle id="258" depart="258.00">
        <route edges="-gneE10 gneE9"/>
    </vehicle>
    <vehicle id="260" depart="260.00">
        <route edges="gneE14 gneE9"/>
    </vehicle>
    <vehicle id="262" depart="262.00">
        <route edges="-gneE10 gneE9"/>
    </vehicle>
    <vehicle id="263" depart="263.00">
        <route edges="-gneE9 gneE10"/>
    </vehicle>
    <vehicle id="264" depart="264.00">
        <route edges="-gneE10 gneE9"/>
    </vehicle>
    <vehicle id="265" depart="265.00">
        <route edges="-gneE10 -gneE14"/>
    </vehicle>
    <vehicle id="266" depart="266.00">
        <route edges="-gneE10 gneE12"/>
    </vehicle>
    <vehicle id="267" depart="267.00">
        <route edges="gneE14 gneE10"/>
    </vehicle>
    <vehicle id="268" depart="268.00">
        <route edges="gneE14 gneE12"/>
    </vehicle>
    <vehicle id="269" depart="269.00">
        <route edges="gneE14 gneE10"/>
    </vehicle>
    <vehicle id="277" depart="277.00">
        <route edges="gneE14 gneE10"/>
    </vehicle>
    <vehicle id="279" depart="279.00">
        <route edges="-gneE10 gneE9"/>
    </vehicle>
    <vehicle id="280" depart="280.00">
        <route edges="-gneE10 -gneE14"/>
    </vehicle>
    <vehicle id="281" depart="281.00">
        <route edges="gneE14 gneE10"/>
    </vehicle>
    <vehicle id="282" depart="282.00">
        <route edges="-gneE9 gneE10"/>
    </vehicle>
    <vehicle id="283" depart="283.00">
        <route edges="-gneE10 gneE9"/>
    </vehicle>
    <vehicle id="284" depart="284.00">
        <route edges="-gneE10 gneE9"/>
    </vehicle>
    <vehicle id="285" depart="285.00">
        <route edges="gneE14 gneE10"/>
    </vehicle>
    <vehicle id="286" depart="286.00">
        <route edges="-gneE10 -gneE14"/>
    </vehicle>
    <vehicle id="289" depart="289.00">
        <route edges="-gneE9 -gneE14"/>
    </vehicle>
    <vehicle id="290" depart="290.00">
        <route edges="-gneE9 gneE12"/>
    </vehicle>
    <vehicle id="291" depart="291.00">
        <route edges="-gneE9 -gneE14"/>
    </vehicle>
    <vehicle id="292" depart="292.00">
        <route edges="-gneE10 -gneE14"/>
    </vehicle>
    <vehicle id="294" depart="294.00">
        <route edges="-gneE10 gneE9"/>
    </vehicle>
    <vehicle id="295" depart="295.00">
        <route edges="-gneE10 gneE9"/>
    </vehicle>
    <vehicle id="296" depart="296.00">
        <route edges="-gneE10 -gneE14"/>
    </vehicle>
    <vehicle id="297" depart="297.00">
        <route edges="-gneE12 gneE10"/>
    </vehicle>
    <vehicle id="299" depart="299.00">
        <route edges="-gneE10 gneE9"/>
    </vehicle>
    <vehicle id="300" depart="300.00">
        <route edges="gneE14 gneE10"/>
    </vehicle>
    <vehicle id="301" depart="301.00">
        <route edges="gneE14 gneE9"/>
    </vehicle>
    <vehicle id="303" depart="303.00">
        <route edges="gneE14 gneE9"/>
    </vehicle>
    <vehicle id="305" depart="305.00">
        <route edges="-gneE12 gneE10"/>
    </vehicle>
    <vehicle id="308" depart="308.00">
        <route edges="-gneE10 -gneE14"/>
    </vehicle>
    <vehicle id="309" depart="309.00">
        <route edges="-gneE9 gneE12"/>
    </vehicle>
    <vehicle id="311" depart="311.00">
        <route edges="-gneE10 gneE12"/>
    </vehicle>
    <vehicle id="312" depart="312.00">
        <route edges="-gneE10 gneE12"/>
    </vehicle>
    <vehicle id="313" depart="313.00">
        <route edges="gneE14 gneE10"/>
    </vehicle>
    <vehicle id="314" depart="314.00">
        <route edges="-gneE12 gneE10"/>
    </vehicle>
    <vehicle id="315" depart="315.00">
        <route edges="-gneE9 gneE10"/>
    </vehicle>
    <vehicle id="316" depart="316.00">
        <route edges="gneE14 gneE12"/>
    </vehicle>
    <vehicle id="318" depart="318.00">
        <route edges="-gneE9 -gneE14"/>
    </vehicle>
    <vehicle id="319" depart="319.00">
        <route edges="-gneE10 gneE9"/>
    </vehicle>
    <vehicle id="320" depart="320.00">
        <route edges="-gneE12 gneE10"/>
    </vehicle>
    <vehicle id="324" depart="324.00">
        <route edges="gneE14 gneE12"/>
    </vehicle>
    <vehicle id="325" depart="325.00">
        <route edges="-gneE10 gneE12"/>
    </vehicle>
    <vehicle id="326" depart="326.00">
        <route edges="-gneE10 gneE9"/>
    </vehicle>
    <vehicle id="327" depart="327.00">
        <route edges="gneE14 gneE10"/>
    </vehicle>
    <vehicle id="328" depart="328.00">
        <route edges="-gneE12 gneE10"/>
    </vehicle>
    <vehicle id="329" depart="329.00">
        <route edges="-gneE10 -gneE14"/>
    </vehicle>
    <vehicle id="330" depart="330.00">
        <route edges="gneE14 gneE12"/>
    </vehicle>
    <vehicle id="331" depart="331.00">
        <route edges="-gneE10 gneE12"/>
    </vehicle>
    <vehicle id="332" depart="332.00">
        <route edges="-gneE12 gneE10"/>
    </vehicle>
    <vehicle id="333" depart="333.00">
        <route edges="-gneE10 -gneE14"/>
    </vehicle>
    <vehicle id="334" depart="334.00">
        <route edges="-gneE10 -gneE14"/>
    </vehicle>
    <vehicle id="335" depart="335.00">
        <route edges="-gneE10 gneE9"/>
    </vehicle>
    <vehicle id="337" depart="337.00">
        <route edges="-gneE12 -gneE14"/>
    </vehicle>
    <vehicle id="338" depart="338.00">
        <route edges="-gneE9 gneE12"/>
    </vehicle>
    <vehicle id="340" depart="340.00">
        <route edges="-gneE9 -gneE14"/>
    </vehicle>
    <vehicle id="341" depart="341.00">
        <route edges="-gneE10 gneE9"/>
    </vehicle>
    <vehicle id="342" depart="342.00">
        <route edges="-gneE12 gneE10"/>
    </vehicle>
    <vehicle id="345" depart="345.00">
        <route edges="-gneE12 gneE9"/>
    </vehicle>
    <vehicle id="346" depart="346.00">
        <route edges="-gneE10 gneE9"/>
    </vehicle>
    <vehicle id="347" depart="347.00">
        <route edges="-gneE10 gneE9"/>
    </vehicle>
    <vehicle id="348" depart="348.00">
        <route edges="-gneE10 gneE12"/>
    </vehicle>
    <vehicle id="349" depart="349.00">
        <route edges="-gneE10 -gneE14"/>
    </vehicle>
    <vehicle id="350" depart="350.00">
        <route edges="gneE14 gneE10"/>
    </vehicle>
    <vehicle id="351" depart="351.00">
        <route edges="-gneE10 gneE12"/>
    </vehicle>
    <vehicle id="352" depart="352.00">
        <route edges="-gneE9 -gneE14"/>
    </vehicle>
    <vehicle id="353" depart="353.00">
        <route edges="-gneE12 gneE9"/>
    </vehicle>
    <vehicle id="354" depart="354.00">
        <route edges="-gneE12 -gneE14"/>
    </vehicle>
    <vehicle id="355" depart="355.00">
        <route edges="-gneE9 -gneE14"/>
    </vehicle>
    <vehicle id="356" depart="356.00">
        <route edges="-gneE10 -gneE14"/>
    </vehicle>
    <vehicle id="357" depart="357.00">
        <route edges="-gneE10 gneE12"/>
    </vehicle>
    <vehicle id="358" depart="358.00">
        <route edges="gneE14 gneE9"/>
    </vehicle>
    <vehicle id="359" depart="359.00">
        <route edges="-gneE10 -gneE14"/>
    </vehicle>
    <vehicle id="360" depart="360.00">
        <route edges="-gneE12 gneE9"/>
    </vehicle>
    <vehicle id="361" depart="361.00">
        <route edges="-gneE9 gneE10"/>
    </vehicle>
    <vehicle id="362" depart="362.00">
        <route edges="gneE14 gneE12"/>
    </vehicle>
    <vehicle id="363" depart="363.00">
        <route edges="-gneE12 gneE10"/>
    </vehicle>
    <vehicle id="364" depart="364.00">
        <route edges="-gneE9 -gneE14"/>
    </vehicle>
    <vehicle id="365" depart="365.00">
        <route edges="gneE14 gneE9"/>
    </vehicle>
    <vehicle id="366" depart="366.00">
        <route edges="-gneE10 gneE9"/>
    </vehicle>
    <vehicle id="367" depart="367.00">
        <route edges="gneE14 gneE10"/>
    </vehicle>
    <vehicle id="368" depart="368.00">
        <route edges="-gneE12 gneE9"/>
    </vehicle>
    <vehicle id="371" depart="371.00">
        <route edges="-gneE10 -gneE14"/>
    </vehicle>
    <vehicle id="372" depart="372.00">
        <route edges="-gneE12 -gneE14"/>
    </vehicle>
    <vehicle id="373" depart="373.00">
        <route edges="-gneE10 -gneE14"/>
    </vehicle>
    <vehicle id="377" depart="377.00">
        <route edges="gneE14 gneE10"/>
    </vehicle>
    <vehicle id="378" depart="378.00">
        <route edges="-gneE12 gneE10"/>
    </vehicle>
    <vehicle id="379" depart="379.00">
        <route edges="gneE14 gneE12"/>
    </vehicle>
    <vehicle id="383" depart="383.00">
        <route edges="-gneE12 gneE10"/>
    </vehicle>
    <vehicle id="387" depart="387.00">
        <route edges="-gneE10 gneE9"/>
    </vehicle>
    <vehicle id="388" depart="388.00">
        <route edges="-gneE10 gneE12"/>
    </vehicle>
    <vehicle id="390" depart="390.00">
        <route edges="gneE14 gneE9"/>
    </vehicle>
    <vehicle id="393" depart="393.00">
        <route edges="-gneE10 gneE12"/>
    </vehicle>
    <vehicle id="394" depart="394.00">
        <route edges="gneE14 gneE10"/>
    </vehicle>
    <vehicle id="398" depart="398.00">
        <route edges="-gneE9 -gneE14"/>
    </vehicle>
    <vehicle id="399" depart="399.00">
        <route edges="-gneE12 gneE10"/>
    </vehicle>
    <vehicle id="401" depart="401.00">
        <route edges="-gneE9 gneE10"/>
    </vehicle>
    <vehicle id="402" depart="402.00">
        <route edges="-gneE10 gneE12"/>
    </vehicle>
    <vehicle id="403" depart="403.00">
        <route edges="gneE14 gneE10"/>
    </vehicle>
    <vehicle id="404" depart="404.00">
        <route edges="-gneE10 -gneE14"/>
    </vehicle>
    <vehicle id="405" depart="405.00">
        <route edges="-gneE12 -gneE14"/>
    </vehicle>
    <vehicle id="406" depart="406.00">
        <route edges="-gneE10 -gneE14"/>
    </vehicle>
    <vehicle id="407" depart="407.00">
        <route edges="gneE14 gneE10"/>
    </vehicle>
    <vehicle id="408" depart="408.00">
        <route edges="gneE14 gneE12"/>
    </vehicle>
    <vehicle id="409" depart="409.00">
        <route edges="gneE14 gneE10"/>
    </vehicle>
    <vehicle id="410" depart="410.00">
        <route edges="-gneE10 gneE12"/>
    </vehicle>
    <vehicle id="411" depart="411.00">
        <route edges="-gneE12 gneE10"/>
    </vehicle>
    <vehicle id="412" depart="412.00">
        <route edges="-gneE10 gneE12"/>
    </vehicle>
    <vehicle id="414" depart="414.00">
        <route edges="gneE14 gneE10"/>
    </vehicle>
    <vehicle id="415" depart="415.00">
        <route edges="-gneE12 gneE9"/>
    </vehicle>
    <vehicle id="416" depart="416.00">
        <route edges="-gneE10 gneE9"/>
    </vehicle>
    <vehicle id="422" depart="422.00">
        <route edges="gneE14 gneE12"/>
    </vehicle>
    <vehicle id="423" depart="423.00">
        <route edges="-gneE12 -gneE14"/>
    </vehicle>
    <vehicle id="424" depart="424.00">
        <route edges="-gneE10 gneE12"/>
    </vehicle>
    <vehicle id="425" depart="425.00">
        <route edges="-gneE12 -gneE14"/>
    </vehicle>
    <vehicle id="426" depart="426.00">
        <route edges="-gneE12 gneE9"/>
    </vehicle>
    <vehicle id="427" depart="427.00">
        <route edges="-gneE10 -gneE14"/>
    </vehicle>
    <vehicle id="429" depart="429.00">
        <route edges="-gneE9 -gneE14"/>
    </vehicle>
    <vehicle id="430" depart="430.00">
        <route edges="-gneE9 gneE10"/>
    </vehicle>
    <vehicle id="433" depart="433.00">
        <route edges="-gneE10 gneE9"/>
    </vehicle>
    <vehicle id="435" depart="435.00">
        <route edges="gneE14 gneE9"/>
    </vehicle>
    <vehicle id="436" depart="436.00">
        <route edges="gneE14 gneE12"/>
    </vehicle>
    <vehicle id="438" depart="438.00">
        <route edges="-gneE12 gneE10"/>
    </vehicle>
    <vehicle id="439" depart="439.00">