<?xml version="1.0" encoding="UTF-8"?>

<!-- generated on Thu 20 Aug 2020 03:03:56 by Eclipse SUMO netedit Version 1.4.0
<configuration xmlns:xsi="http://www.w3.org/2001/XMLSchema-instance" xsi:noNamespaceSchemaLocation="http://sumo.dlr.de/xsd/netconvertConfiguration.xsd">

    <input>
        <sumo-net-file value="4way.net.xml"/>
    </input>

    <output>
        <output-file value="4way.net.xml"/>
    </output>

    <processing>
        <geometry.min-radius.fix.railways value="false"/>
        <geometry.max-grade.fix value="false"/>
        <offset.disable-normalization value="true"/>
        <lefthand value="true"/>
    </processing>

    <junctions>
        <no-turnarounds value="true"/>
        <junctions.corner-detail value="5"/>
        <junctions.limit-turn-speed value="5.5"/>
        <rectangular-lane-cut value="false"/>
    </junctions>

    <pedestrian>
        <walkingareas value="false"/>
    </pedestrian>

    <visualisation>
        <registry-viewport value="true"/>
    </visualisation>

    <report>
        <aggregate-warnings value="5"/>
    </report>

</configuration>
-->

<net version="1.3" junctionCornerDetail="5" lefthand="true" limitTurnSpeed="5.50" xmlns:xsi="http://www.w3.org/2001/XMLSchema-instance" xsi:noNamespaceSchemaLocation="http://sumo.dlr.de/xsd/net_file.xsd">

    <location netOffset="0.00,0.00" convBoundary="-52.91,1.64,125.82,98.00" origBoundary="-10000000000.00,-10000000000.00,10000000000.00,10000000000.00" projParameter="!"/>

    <edge id=":gneJ11_0" function="internal">
        <lane id=":gneJ11_0_0" index="0" speed="6.82" length="9.49" shape="29.65,44.17 29.23,46.71 28.11,48.56 26.28,49.73 23.75,50.21"/>
    </edge>
    <edge id=":gneJ11_1" function="internal">
        <lane id=":gneJ11_1_0" index="0" speed="13.89" length="14.63" shape="29.65,44.17 29.69,58.80"/>
    </edge>
    <edge id=":gneJ11_2" function="internal">
        <lane id=":gneJ11_2_0" index="0" speed="7.99" length="6.19" shape="29.65,44.17 30.12,48.05 31.26,50.02"/>
    </edge>
    <edge id=":gneJ11_12" function="internal">
        <lane id=":gneJ11_12_0" index="0" speed="7.99" length="8.11" shape="31.26,50.02 31.74,50.84 34.49,52.52 38.39,53.11"/>
    </edge>
    <edge id=":gneJ11_3" function="internal">
        <lane id=":gneJ11_3_0" index="0" speed="6.49" length="9.09" shape="38.42,49.91 35.93,49.54 34.18,48.47 33.15,46.70 32.85,44.24"/>
    </edge>
    <edge id=":gneJ11_4" function="internal">
        <lane id=":gneJ11_4_0" index="0" speed="13.89" length="14.67" shape="38.42,49.91 23.75,50.21"/>
    </edge>
    <edge id=":gneJ11_5" function="internal">
        <lane id=":gneJ11_5_0" index="0" speed="7.94" length="6.26" shape="38.42,49.91 34.51,50.44 32.53,51.63"/>
    </edge>
    <edge id=":gneJ11_13" function="internal">
        <lane id=":gneJ11_13_0" index="0" speed="7.94" length="8.07" shape="32.53,51.63 31.75,52.10 30.14,54.89 29.69,58.80"/>
    </edge>
    <edge id=":gneJ11_6" function="internal">
        <lane id=":gneJ11_6_0" index="0" speed="6.43" length="9.03" shape="32.89,58.72 33.17,56.25 34.19,54.49 35.93,53.44 38.39,53.11"/>
    </edge>
    <edge id=":gneJ11_7" function="internal">
        <lane id=":gneJ11_7_0" index="0" speed="13.89" length="14.48" shape="32.89,58.72 32.85,44.24"/>
    </edge>
    <edge id=":gneJ11_8" function="internal">
        <lane id=":gneJ11_8_0" index="0" speed="7.97" length="5.70" shape="32.89,58.72 32.23,54.83 31.27,53.35"/>
    </edge>
    <edge id=":gneJ11_14" function="internal">
        <lane id=":gneJ11_14_0" index="0" speed="7.97" length="8.61" shape="31.27,53.35 30.48,52.12 27.65,50.58 23.75,50.21"/>
    </edge>
    <edge id=":gneJ11_9" function="internal">
        <lane id=":gneJ11_9_0" index="0" speed="6.47" length="9.07" shape="23.91,53.41 26.38,53.64 28.17,54.62 29.27,56.34 29.69,58.80"/>
    </edge>
    <edge id=":gneJ11_10" function="internal">
        <lane id=":gneJ11_10_0" index="0" speed="13.89" length="14.49" shape="23.91,53.41 38.39,53.11"/>
    </edge>
    <edge id=":gneJ11_11" function="internal">
        <lane id=":gneJ11_11_0" index="0" speed="8.27" length="5.72" shape="23.91,53.41 27.75,52.67 29.27,51.70"/>
    </edge>
    <edge id=":gneJ11_15" function="internal">
        <lane id=":gneJ11_15_0" index="0" speed="8.27" length="8.67" shape="29.27,51.70 30.52,50.90 32.22,48.09 32.85,44.24"/>
    </edge>

    <edge id="-gneE10" from="gneJ8" to="gneJ11" priority="-1">
        <lane id="-gneE10_0" index="0" speed="13.89" length="87.42" shape="125.83,50.58 38.42,49.91"/>
    </edge>
    <edge id="-gneE12" from="gneJ10" to="gneJ11" priority="-1">
        <lane id="-gneE12_0" index="0" speed="13.89" length="42.58" shape="30.58,1.60 29.65,44.17"/>
    </edge>
    <edge id="-gneE14" from="gneJ11" to="gneJ7" priority="-1">
        <lane id="-gneE14_0" index="0" speed="13.89" length="76.83" shape="23.75,50.21 -52.99,54.04"/>
    </edge>
    <edge id="-gneE9" from="gneJ2" to="gneJ11" priority="-1">
        <lane id="-gneE9_0" index="0" speed="13.89" length="39.25" shape="33.96,97.96 32.89,58.72"/>
    </edge>
    <edge id="gneE10" from="gneJ11" to="gneJ8" priority="-1">
        <lane id="gneE10_0" index="0" speed="13.89" length="87.42" shape="38.39,53.11 125.81,53.78"/>
    </edge>
    <edge id="gneE12" from="gneJ11" to="gneJ10" priority="-1">
        <lane id="gneE12_0" index="0" speed="13.89" length="42.58" shape="32.85,44.24 33.78,1.68"/>
    </edge>
    <edge id="gneE14" from="gneJ7" to="gneJ11" priority="-1">
        <lane id="gneE14_0" index="0" speed="13.89" length="76.83" shape="-52.83,57.24 23.91,53.41"/>
    </edge>
    <edge id="gneE9" from="gneJ11" to="gneJ2" priority="-1">
        <lane id="gneE9_0" index="0" speed="13.89" length="39.25" shape="29.69,58.80 30.76,98.04"/>
    </edge>

    <tlLogic id="gneJ11" type="static" programID="0" offset="0">
        <phase duration="42" state="GGgrrrGGgrrr"/>
        <phase duration="3"  state="yyyrrryyyrrr"/>
        <phase duration="42" state="rrrGGgrrrGGg"/>
        <phase duration="3"  state="rrryyyrrryyy"/>
    </tlLogic>

    <junction id="gneJ10" type="dead_end" x="32.18" y="1.64" incLanes="gneE12_0" intLanes="" shape="32.18,1.64 35.38,1.71 32.18,1.64"/>
    <junction id="gneJ11" type="traffic_light" x="31.09" y="51.45" incLanes="-gneE12_0 -gneE10_0 -gneE9_0 gneE14_0" intLanes=":gneJ11_0_0 :gneJ11_1_0 :gneJ11_12_0 :gneJ11_3_0 :gneJ11_4_0 :gneJ11_13_0 :gneJ11_6_0 :gneJ11_7_0 :gneJ11_14_0 :gneJ11_9_0 :gneJ11_10_0 :gneJ11_15_0" shape="28.05,44.14 34.45,44.28 34.85,46.50 35.40,47.28 36.18,47.84 37.19,48.19 38.43,48.31 38.38,54.71 36.17,55.13 35.41,55.68 34.87,56.46 34.57,57.45 34.49,58.67 28.09,58.85 27.59,56.63 27.01,55.87 26.22,55.35 25.21,55.06 23.99,55.01 23.67,48.62 26.06,48.02 26.91,47.39 27.52,46.53 27.90,45.45">
        <request index="0"  response="000000000000" foes="000100010000" cont="0"/>
        <request index="1"  response="100000100000" foes="111100110000" cont="0"/>
        <request index="2"  response="100011100000" foes="110011110000" cont="1"/>
        <request index="3"  response="000010000000" foes="100010000000" cont="0"/>
        <request index="4"  response="000110000111" foes="100110000111" cont="0"/>
        <request index="5"  response="011110000110" foes="011110000110" cont="1"/>
        <request index="6"  response="000000000000" foes="010000000100" cont="0"/>
        <request index="7"  response="100000100000" foes="110000111100" cont="0"/>
        <request index="8"  response="100000100011" foes="110000110011" cont="1"/>
        <request index="9"  response="000000000010" foes="000000100010" cont="0"/>
        <request index="10" response="000111000110" foes="000111100110" cont="0"/>
        <request index="11" response="000110011110" foes="000110011110" cont="1"/>
    </junction>
    <junction id="gneJ2" type="dead_end" x="32.36" y="98.00" incLanes="gneE9_0" intLanes="" shape="32.36,98.00 29.16,98.09 32.36,98.00"/>
    <junction id="gneJ7" type="dead_end" x="-52.91" y="55.64" incLanes="-gneE14_0" intLanes="" shape="-52.91,55.64 -53.07,52.44 -52.91,55.64"/>
    <junction id="gneJ8" type="dead_end" x="125.82" y="52.18" incLanes="gneE10_0" intLanes="" shape="125.82,52.18 125.80,55.38 125.82,52.18"/>

    <junction id=":gneJ11_12_0" type="internal" x="31.26" y="50.02" incLanes=":gneJ11_2_0 -gneE9_0" intLanes=":gneJ11_4_0 :gneJ11_5_0 :gneJ11_6_0 :gneJ11_7_0 :gneJ11_10_0 :gneJ11_11_0"/>
    <junction id=":gneJ11_13_0" type="internal" x="32.53" y="51.63" incLanes=":gneJ11_5_0 gneE14_0" intLanes=":gneJ11_1_0 :gneJ11_2_0 :gneJ11_7_0 :gneJ11_8_0 :gneJ11_9_0 :gneJ11_10_0"/>
    <junction id=":gneJ11_14_0" type="internal" x="31.27" y="53.35" incLanes=":gneJ11_8_0 -gneE12_0" intLanes=":gneJ11_0_0 :gneJ11_1_0 :gneJ11_4_0 :gneJ11_5_0 :gneJ11_10_0 :gneJ11_11_0"/>
    <junction id=":gneJ11_15_0" type="internal" x="29.27" y="51.70" incLanes=":gneJ11_11_0 -gneE10_0" intLanes=":gneJ11_1_0 :gneJ11_2_0 :gneJ11_3_0 :gneJ11_4_0 :gneJ11_7_0 :gneJ11_8_0"/>

    <connection from="-gneE10" to="gneE12" fromLane="0" toLane="0" via=":gneJ11_3_0" tl="gneJ11" linkIndex="3" dir="l" state="o"/>
    <connection from="-gneE10" to="-gneE14" fromLane="0" toLane="0" via=":gneJ11_4_0" tl="gneJ11" linkIndex="4" dir="s" state="o"/>
    <connection from="-gneE10" to="gneE9" fromLane="0" toLane="0" via=":gneJ11_5_0" tl="gneJ11" linkIndex="5" dir="r" state="o"/>
    <connection from="-gneE12" to="-gneE14" fromLane="0" toLane="0" via=":gneJ11_0_0" tl="gneJ11" linkIndex="0" dir="l" state="O"/>
    <connection from="-gneE12" to="gneE9" fromLane="0" toLane="0" via=":gneJ11_1_0" tl="gneJ11" linkIndex="1" dir="s" state="O"/>
    <connection from="-gneE12" to="gneE10" fromLane="0" toLane="0" via=":gneJ11_2_0" tl="gneJ11" linkIndex="2" dir="r" state="o"/>
    <connection from="-gneE9" to="gneE10" fromLane="0" toLane="0" via=":gneJ11_6_0" tl="gneJ11" linkIndex="6" dir="l" state="O"/>
    <connection from="-gneE9" to="gneE12" fromLane="0" toLane="0" via=":gneJ11_7_0" tl="gneJ11" linkIndex="7" dir="s" state="O"/>
    <connection from="-gneE9" to="-gneE14" fromLane="0" toLane="0" via=":gneJ11_8_0" tl="gneJ11" linkIndex="8" dir="r" state="o"/>
    <connection from="gneE14" to="gneE9" fromLane="0" toLane="0" via=":gneJ11_9_0" tl="gneJ11" linkIndex="9" dir="l" state="o"/>
    <connection from="gneE14" to="gneE10" fromLane="0" toLane="0" via=":gneJ11_10_0" tl="gneJ11" linkIndex="10" dir="s" state="o"/>
    <connection from="gneE14" to="gneE12" fromLane="0" toLane="0" via=":gneJ11_11_0" tl="gneJ11" linkIndex="11" dir="r" state="o"/>

    <connection from=":gneJ11_0" to="-gneE14" fromLane="0" toLane="0" dir="l" state="M"/>
    <connection from=":gneJ11_1" to="gneE9" fromLane="0" toLane="0" dir="s" state="M"/>
    <connection from=":gneJ11_2" to="gneE10" fromLane="0" toLane="0" via=":gneJ11_12_0" dir="r" state="m"/>
    <connection from=":gneJ11_12" to="gneE10" fromLane="0" toLane="0" dir="r" state="M"/>
    <connection from=":gneJ11_3" to="gneE12" fromLane="0" toLane="0" dir="l" state="M"/>
    <connection from=":gneJ11_4" to="-gneE14" fromLane="0" toLane="0" dir="s" state="M"/>
    <connection from=":gneJ11_5" to="gneE9" fromLane="0" toLane="0" via=":gneJ11_13_0" dir="r" state="m"/>
    <connection from=":gneJ11_13" to="gneE9" fromLane="0" toLane="0" dir="r" state="M"/>
    <connection from=":gneJ11_6" to="gneE10" fromLane="0" toLane="0" dir="l" state="M"/>
    <connection from=":gneJ11_7" to="gneE12" fromLane="0" toLane="0" dir="s" state="M"/>
    <connection from=":gneJ11_8" to="-gneE14" fromLane="0" toLane="0" via=":gneJ11_14_0" dir="r" state="m"/>
    <connection from=":gneJ11_14" to="-gneE14" fromLane="0" toLane="0" dir="r" state="M"/>
    <connection from=":gneJ11_9" to="gneE9" fromLane="0" toLane="0" dir="l" state="M"/>
    <connection from=":gneJ11_10" to="gneE10" fromLane="0" toLane="0" dir="s" state="M"/>
    <connection from=":gneJ11_11" to="gneE12" fromLane="0" toLane="0" via=":gneJ11_15_0" dir="r" state="m"/>
    <connection from=":gneJ11_15" to="gneE12" fromLane="0" toLane="0" dir="r" state="M"/>

</net>
