<?xml version="1.0" encoding="UTF-8"?>

<!-- generated on Wed Aug 19 18:02:27 2020 by Eclipse SUMO duarouter Version 1.4.0
<configuration xmlns:xsi="http://www.w3.org/2001/XMLSchema-instance" xsi:noNamespaceSchemaLocation="http://sumo.dlr.de/xsd/duarouterConfiguration.xsd">

    <input>
        <net-file value="4way.net.xml"/>
        <route-files value="trips.trips.xml"/>
    </input>

    <output>
        <output-file value="trips.trips.xml.tmp"/>
        <write-trips value="true"/>
    </output>

    <time>
        <begin value="0"/>
        <end value="1000.0"/>
    </time>

    <report>
        <no-warnings value="true"/>
        <ignore-errors value="true"/>
        <no-step-log value="true"/>
    </report>

</configuration>
-->

<routes xmlns:xsi="http://www.w3.org/2001/XMLSchema-instance" xsi:noNamespaceSchemaLocation="http://sumo.dlr.de/xsd/routes_file.xsd">
    <trip id="0" depart="0.00" from="-gneE10" to="gneE9"/>
    <trip id="2" depart="2.00" from="-gneE10" to="gneE11"/>
    <trip id="6" depart="6.00" from="-gneE12" to="gneE10"/>
    <trip id="7" depart="7.00" from="-gneE10" to="gneE12"/>
    <trip id="11" depart="11.00" from="-gneE11" to="gneE12"/>
    <trip id="12" depart="12.00" from="-gneE10" to="gneE11"/>
    <trip id="13" depart="13.00" from="-gneE12" to="gneE11"/>
    <trip id="15" depart="15.00" from="-gneE10" to="gneE11"/>
    <trip id="16" depart="16.00" from="-gneE11" to="gneE10"/>
    <trip id="17" depart="17.00" from="-gneE10" to="gneE12"/>
    <trip id="18" depart="18.00" from="-gneE9" to="gneE12"/>
    <trip id="19" depart="19.00" from="-gneE9" to="gneE11"/>
    <trip id="21" depart="21.00" from="-gneE12" to="gneE9"/>
    <trip id="22" depart="22.00" from="-gneE11" to="gneE10"/>
    <trip id="24" depart="24.00" from="-gneE9" to="gneE12"/>
    <trip id="25" depart="25.00" from="-gneE10" to="gneE11"/>
    <trip id="26" depart="26.00" from="-gneE10" to="gneE11"/>
    <trip id="28" depart="28.00" from="-gneE10" to="gneE9"/>
    <trip id="31" depart="31.00" from="-gneE11" to="gneE10"/>
    <trip id="32" depart="32.00" from="-gneE10" to="gneE12"/>
    <trip id="35" depart="35.00" from="-gneE9" to="gneE11"/>
    <trip id="37" depart="37.00" from="-gneE12" to="gneE10"/>
    <trip id="38" depart="38.00" from="-gneE10" to="gneE9"/>
    <trip id="39" depart="39.00" from="-gneE10" to="gneE9"/>
    <trip id="40" depart="40.00" from="-gneE10" to="gneE11"/>
    <trip id="41" depart="41.00" from="-gneE11" to="gneE9"/>
    <trip id="43" depart="43.00" from="-gneE10" to="gneE12"/>
    <trip id="44" depart="44.00" from="-gneE10" to="gneE11"/>
    <trip id="45" depart="45.00" from="-gneE10" to="gneE9"/>
    <trip id="46" depart="46.00" from="-gneE10" to="gneE9"/>
    <trip id="47" depart="47.00" from="-gneE9" to="gneE11"/>
    <trip id="48" depart="48.00" from="-gneE10" to="gneE9"/>
    <trip id="50" depart="50.00" from="-gneE12" to="gneE10"/>
    <trip id="51" depart="51.00" from="-gneE12" to="gneE11"/>
    <trip id="54" depart="54.00" from="-gneE11" to="gneE10"/>
    <trip id="57" depart="57.00" from="-gneE10" to="gneE11"/>
    <trip id="58" depart="58.00" from="-gneE11" to="gneE9"/>
    <trip id="60" depart="60.00" from="-gneE10" to="gneE11"/>
    <trip id="61" depart="61.00" from="-gneE9" to="gneE11"/>
    <trip id="64" depart="64.00" from="-gneE10" to="gneE9"/>
    <trip id="65" depart="65.00" from="-gneE9" to="gneE12"/>
    <trip id="66" depart="66.00" from="-gneE10" to="gneE11"/>
    <trip id="67" depart="67.00" from="-gneE12" to="gneE10"/>
    <trip id="68" depart="68.00" from="-gneE9" to="gneE11"/>
    <trip id="69" depart="69.00" from="-gneE11" to="gneE10"/>
    <trip id="70" depart="70.00" from="-gneE9" to="gneE11"/>
    <trip id="71" depart="71.00" from="-gneE12" to="gneE10"/>
    <trip id="72" depart="72.00" from="-gneE9" to="gneE11"/>
    <trip id="73" depart="73.00" from="-gneE11" to="gneE12"/>
    <trip id="74" depart="74.00" from="-gneE10" to="gneE9"/>
    <trip id="76" depart="76.00" from="-gneE12" to="gneE10"/>
    <trip id="78" depart="78.00" from="-gneE9" to="gneE10"/>
    <trip id="80" depart="80.00" from="-gneE9" to="gneE10"/>
    <trip id="81" depart="81.00" from="-gneE9" to="gneE10"/>
    <trip id="82" depart="82.00" from="-gneE10" to="gneE11"/>
    <trip id="85" depart="85.00" from="-gneE10" to="gneE11"/>
    <trip id="86" depart="86.00" from="-gneE10" to="gneE12"/>
    <trip id="87" depart="87.00" from="-gneE11" to="gneE9"/>
    <trip id="88" depart="88.00" from="-gneE9" to="gneE12"/>
    <trip id="89" depart="89.00" from="-gneE12" to="gneE9"/>
    <trip id="90" depart="90.00" from="-gneE10" to="gneE12"/>
    <trip id="91" depart="91.00" from="-gneE10" to="gneE11"/>
    <trip id="92" depart="92.00" from="-gneE10" to="gneE9"/>
    <trip id="93" depart="93.00" from="-gneE9" to="gneE11"/>
    <trip id="94" depart="94.00" from="-gneE10" to="gneE12"/>
    <trip id="96" depart="96.00" from="-gneE11" to="gneE10"/>
    <trip id="97" depart="97.00" from="-gneE10" to="gneE11"/>
    <trip id="99" depart="99.00" from="-gneE9" to="gneE11"/>
    <trip id="100" depart="100.00" from="-gneE11" to="gneE10"/>
    <trip id="102" depart="102.00" from="-gneE10" to="gneE11"/>
    <trip id="104" depart="104.00" from="-gneE11" to="gneE10"/>
    <trip id="105" depart="105.00" from="-gneE11" to="gneE12"/>
    <trip id="108" depart="108.00" from="-gneE11" to="gneE9"/>
    <trip id="109" depart="109.00" from="-gneE9" to="gneE10"/>
    <trip id="110" depart="110.00" from="-gneE10" to="gneE11"/>
    <trip id="111" depart="111.00" from="-gneE10" to="gneE12"/>
    <trip id="112" depart="112.00" from="-gneE11" to="gneE10"/>
    <trip id="113" depart="113.00" from="-gneE10" to="gneE11"/>
    <trip id="114" depart="114.00" from="-gneE9" to="gneE10"/>
    <trip id="115" depart="115.00" from="-gneE10" to="gneE12"/>
    <trip id="117" depart="117.00" from="-gneE10" to="gneE9"/>
    <trip id="118" depart="118.00" from="-gneE10" to="gneE11"/>
    <trip id="120" depart="120.00" from="-gneE11" to="gneE10"/>
    <trip id="123" depart="123.00" from="-gneE9" to="gneE10"/>
    <trip id="124" depart="124.00" from="-gneE10" to="gneE9"/>
    <trip id="125" depart="125.00" from="-gneE11" to="gneE10"/>
    <trip id="126" depart="126.00" from="-gneE10" to="gneE12"/>
    <trip id="127" depart="127.00" from="-gneE12" to="gneE9"/>
    <trip id="130" depart="130.00" from="-gneE12" to="gneE11"/>
    <trip id="131" depart="131.00" from="-gneE12" to="gneE10"/>
    <trip id="132" depart="132.00" from="-gneE11" to="gneE10"/>
    <trip id="133" depart="133.00" from="-gneE10" to="gneE11"/>
    <trip id="134" depart="134.00" from="-gneE12" to="gneE11"/>
    <trip id="136" depart="136.00" from="-gneE9" to="gneE10"/>
    <trip id="138" depart="138.00" from="-gneE10" to="gneE12"/>
    <trip id="140" depart="140.00" from="-gneE10" to="gneE9"/>
    <trip id="141" depart="141.00" from="-gneE12" to="gneE11"/>
    <trip id="142" depart="142.00" from="-gneE12" to="gneE10"/>
    <trip id="145" depart="145.00" from="-gneE10" to="gneE11"/>
    <trip id="148" depart="148.00" from="-gneE9" to="gneE10"/>
    <trip id="150" depart="150.00" from="-gneE10" to="gneE12"/>
    <trip id="151" depart="151.00" from="-gneE9" to="gneE10"/>
    <trip id="155" depart="155.00" from="-gneE9" to="gneE12"/>
    <trip id="156" depart="156.00" from="-gneE10" to="gneE9"/>
    <trip id="157" depart="157.00" from="-gneE12" to="gneE10"/>
    <trip id="158" depart="158.00" from="-gneE9" to="gneE11"/>
    <trip id="159" depart="159.00" from="-gneE11" to="gneE9"/>
    <trip id="160" depart="160.00" from="-gneE12" to="gneE10"/>
    <trip id="161" depart="161.00" from="-gneE9" to="gneE10"/>
    <trip id="163" depart="163.00" from="-gneE11" to="gneE12"/>
    <trip id="164" depart="164.00" from="-gneE10" to="gneE11"/>
    <trip id="166" depart="166.00" from="-gneE12" to="gneE11"/>
    <trip id="167" depart="167.00" from="-gneE9" to="gneE11"/>
    <trip id="168" depart="168.00" from="-gneE9" to="gneE11"/>
    <trip id="169" depart="169.00" from="-gneE12" to="gneE11"/>
    <trip id="170" depart="170.00" from="-gneE12" to="gneE10"/>
    <trip id="172" depart="172.00" from="-gneE9" to="gneE12"/>
    <trip id="173" depart="173.00" from="-gneE11" to="gneE12"/>
    <trip id="175" depart="175.00" from="-gneE12" to="gneE9"/>
    <trip id="176" depart="176.00" from="-gneE11" to="gneE12"/>
    <trip id="177" depart="177.00" from="-gneE12" to="gneE10"/>
    <trip id="178" depart="178.00" from="-gneE9" to="gneE11"/>
    <trip id="179" depart="179.00" from="-gneE11" to="gneE12"/>
    <trip id="181" depart="181.00" from="-gneE12" to="gneE11"/>
    <trip id="182" depart="182.00" from="-gneE11" to="gneE10"/>
    <trip id="183" depart="183.00" from="-gneE9" to="gneE10"/>
    <trip id="184" depart="184.00" from="-gneE10" to="gneE12"/>
    <trip id="186" depart="186.00" from="-gneE12" to="gneE9"/>
    <trip id="187" depart="187.00" from="-gneE10" to="gneE9"/>
    <trip id="188" depart="188.00" from="-gneE11" to="gneE12"/>
    <trip id="189" depart="189.00" from="-gneE9" to="gneE11"/>
    <trip id="190" depart="190.00" from="-gneE9" to="gneE10"/>
    <trip id="192" depart="192.00" from="-gneE9" to="gneE12"/>
    <trip id="193" depart="193.00" from="-gneE12" to="gneE9"/>
    <trip id="195" depart="195.00" from="-gneE10" to="gneE11"/>
    <trip id="196" depart="196.00" from="-gneE11" to="gneE9"/>
    <trip id="197" depart="197.00" from="-gneE10" to="gneE11"/>
    <trip id="198" depart="198.00" from="-gneE11" to="gneE9"/>
    <trip id="199" depart="199.00" from="-gneE11" to="gneE12"/>
    <trip id="200" depart="200.00" from="-gneE9" to="gneE11"/>
    <trip id="203" depart="203.00" from="-gneE9" to="gneE10"/>
    <trip id="204" depart="204.00" from="-gneE10" to="gneE12"/>
    <trip id="208" depart="208.00" from="-gneE10" to="gneE11"/>
    <trip id="209" depart="209.00" from="-gneE10" to="gneE11"/>
    <trip id="210" depart="210.00" from="-gneE11" to="gneE9"/>
    <trip id="211" depart="211.00" from="-gneE12" to="gneE11"/>
    <trip id="212" depart="212.00" from="-gneE10" to="gneE11"/>
    <trip id="213" depart="213.00" from="-gneE12" to="gneE11"/>
    <trip id="214" depart="214.00" from="-gneE10" to="gneE11"/>
    <trip id="217" depart="217.00" from="-gneE9" to="gneE10"/>
    <trip id="218" depart="218.00" from="-gneE11" to="gneE10"/>
    <trip id="219" depart="219.00" from="-gneE9" to="gneE11"/>
    <trip id="220" depart="220.00" from="-gneE9" to="gneE12"/>
    <trip id="221" depart="221.00" from="-gneE11" to="gneE10"/>
    <trip id="222" depart="222.00" from="-gneE9" to="gneE12"/>
    <trip id="223" depart="223.00" from="-gneE12" to="gneE9"/>
    <trip id="224" depart="224.00" from="-gneE12" to="gneE11"/>
    <trip id="225" depart="225.00" from="-gneE11" to="gneE10"/>
    <trip id="226" depart="226.00" from="-gneE10" to="gneE11"/>
    <trip id="227" depart="227.00" from="-gneE12" to="gneE11"/>
    <trip id="228" depart="228.00" from="-gneE10" to="gneE11"/>
    <trip id="230" depart="230.00" from="-gneE11" to="gneE10"/>
    <trip id="231" depart="231.00" from="-gneE12" to="gneE10"/>
    <trip id="232" depart="232.00" from="-gneE9" to="gneE12"/>
    <trip id="233" depart="233.00" from="-gneE11" to="gneE12"/>
    <trip id="234" depart="234.00" from="-gneE9" to="gneE11"/>
    <trip id="235" depart="235.00" from="-gneE12" to="gneE11"/>
    <trip id="236" depart="236.00" from="-gneE10" to="gneE9"/>
    <trip id="237" depart="237.00" from="-gneE9" to="gneE10"/>
    <trip id="238" depart="238.00" from="-gneE9" to="gneE11"/>
    <trip id="239" depart="239.00" from="-gneE10" to="gneE11"/>
    <trip id="241" depart="241.00" from="-gneE10" to="gneE12"/>
    <trip id="242" depart="242.00" from="-gneE9" to="gneE11"/>
    <trip id="244" depart="244.00" from="-gneE10" to="gneE9"/>
    <trip id="245" depart="245.00" from="-gneE11" to="gneE12"/>
    <trip id="246" depart="246.00" from="-gneE11" to="gneE10"/>
    <trip id="247" depart="247.00" from="-gneE12" to="gneE11"/>
    <trip id="248" depart="248.00" from="-gneE12" to="gneE10"/>
    <trip id="249" depart="249.00" from="-gneE9" to="gneE10"/>
    <trip id="252" depart="252.00" from="-gneE11" to="gneE10"/>
    <trip id="254" depart="254.00" from="-gneE10" to="gneE9"/>
    <trip id="255" depart="255.00" from="-gneE11" to="gneE10"/>
    <trip id="256" depart="256.00" from="-gneE10" to="gneE9"/>
    <trip id="257" depart="257.00" from="-gneE11" to="gneE10"/>
    <trip id="258" depart="258.00" from="-gneE12" to="gneE11"/>
    <trip id="259" depart="259.00" from="-gneE12" to="gneE11"/>
    <trip id="261" depart="261.00" from="-gneE10" to="gneE9"/>
    <trip id="262" depart="262.00" from="-gneE11" to="gneE10"/>
    <trip id="264" depart="264.00" from="-gneE11" to="gneE9"/>
    <trip id="265" depart="265.00" from="-gneE10" to="gneE12"/>
    <trip id="267" depart="267.00" from="-gneE11" to="gneE10"/>
    <trip id="268" depart="268.00" from="-gneE10" to="gneE11"/>
    <trip id="270" depart="270.00" from="-gneE12" to="gneE9"/>
    <trip id="271" depart="271.00" from="-gneE11" to="gneE10"/>
    <trip id="272" depart="272.00" from="-gneE9" to="gneE10"/>
    <trip id="273" depart="273.00" from="-gneE11" to="gneE12"/>
    <trip id="275" depart="275.00" from="-gneE10" to="gneE11"/>
    <trip id="279" depart="279.00" from="-gneE9" to="gneE11"/>
    <trip id="282" depart="282.00" from="-gneE10" to="gneE12"/>
    <trip id="283" depart="283.00" from="-gneE11" to="gneE10"/>
    <trip id="284" depart="284.00" from="-gneE12" to="gneE10"/>
    <trip id="285" depart="285.00" from="-gneE9" to="gneE11"/>
    <trip id="287" depart="287.00" from="-gneE9" to="gneE11"/>
    <trip id="288" depart="288.00" from="-gneE10" to="gneE11"/>
    <trip id="289" depart="289.00" from="-gneE10" to="gneE11"/>
    <trip id="290" depart="290.00" from="-gneE9" to="gneE10"/>
    <trip id="291" depart="291.00" from="-gneE10" to="gneE11"/>
    <trip id="292" depart="292.00" from="-gneE10" to="gneE11"/>
    <trip id="294" depart="294.00" from="-gneE11" to="gneE9"/>
    <trip id="295" depart="295.00" from="-gneE11" to="gneE10"/>
    <trip id="296" depart="296.00" from="-gneE12" to="gneE9"/>
    <trip id="297" depart="297.00" from="-gneE10" to="gneE9"/>
    <trip id="300" depart="300.00" from="-gneE11" to="gneE12"/>
    <trip id="301" depart="301.00" from="-gneE11" to="gneE9"/>
    <trip id="302" depart="302.00" from="-gneE11" to="gneE9"/>
    <trip id="303" depart="303.00" from="-gneE11" to="gneE10"/>
    <trip id="305" depart="305.00" from="-gneE12" to="gneE11"/>
    <trip id="308" depart="308.00" from="-gneE11" to="gneE10"/>
    <trip id="310" depart="310.00" from="-gneE10" to="gneE11"/>
    <trip id="311" depart="311.00" from="-gneE12" to="gneE11"/>
    <trip id="312" depart="312.00" from="-gneE11" to="gneE10"/>
    <trip id="313" depart="313.00" from="-gneE9" to="gneE10"/>
    <trip id="314" depart="314.00" from="-gneE9" to="gneE12"/>
    <trip id="316" depart="316.00" from="-gneE10" to="gneE12"/>
    <trip id="317" depart="317.00" from="-gneE11" to="gneE10"/>
    <trip id="319" depart="319.00" from="-gneE11" to="gneE12"/>
    <trip id="320" depart="320.00" from="-gneE9" to="gneE11"/>
    <trip id="321" depart="321.00" from="-gneE9" to="gneE11"/>
    <trip id="322" depart="322.00" from="-gneE9" to="gneE11"/>
    <trip id="323" depart="323.00" from="-gneE9" to="gneE12"/>
    <trip id="324" depart="324.00" from="-gneE11" to="gneE12"/>
    <trip id="325" depart="325.00" from="-gneE11" to="gneE10"/>
    <trip id="326" depart="326.00" from="-gneE9" to="gneE10"/>
    <trip id="327" depart="327.00" from="-gneE10" to="gneE11"/>
    <trip id="328" depart="328.00" from="-gneE10" to="gneE9"/>
    <trip id="329" depart="329.00" from="-gneE10" to="gneE9"/>
    <trip id="330" depart="330.00" from="-gneE11" to="gneE10"/>
    <trip id="331" depart="331.00" from="-gneE11" to="gneE12"/>
    <trip id="332" depart="332.00" from="-gneE12" to="gneE11"/>
    <trip id="333" depart="333.00" from="-gneE12" to="gneE9"/>
    <trip id="334" depart="334.00" from="-gneE12" to="gneE10"/>
    <trip id="335" depart="335.00" from="-gneE10" to="gneE9"/>
    <trip id="337" depart="337.00" from="-gneE9" to="gneE11"/>
    <trip id="339" depart="339.00" from="-gneE9" to="gneE10"/>
    <trip id="340" depart="340.00" from="-gneE9" to="gneE12"/>
    <trip id="341" depart="341.00" from="-gneE9" to="gneE10"/>
    <trip id="342" depart="342.00" from="-gneE9" to="gneE10"/>
    <trip id="343" depart="343.00" from="-gneE12" to="gneE10"/>
    <trip id="345" depart="345.00" from="-gneE11" to="gneE12"/>
    <trip id="346" depart="346.00" from="-gneE11" to="gneE10"/>
    <trip id="349" depart="349.00" from="-gneE10" to="gneE12"/>
    <trip id="350" depart="350.00" from="-gneE11" to="gneE9"/>
    <trip id="351" depart="351.00" from="-gneE9" to="gneE12"/>
    <trip id="352" depart="352.00" from="-gneE11" to="gneE10"/>
    <trip id="353" depart="353.00" from="-gneE9" to="gneE11"/>
    <trip id="354" depart="354.00" from="-gneE11" to="gneE12"/>
    <trip id="356" depart="356.00" from="-gneE10" to="gneE12"/>
    <trip id="357" depart="357.00" from="-gneE11" to="gneE9"/>
    <trip id="362" depart="362.00" from="-gneE11" to="gneE10"/>
    <trip id="366" depart="366.00" from="-gneE11" to="gneE10"/>
    <trip id="367" depart="367.00" from="-gneE10" to="gneE9"/>
    <trip id="369" depart="369.00" from="-gneE11" to="gneE10"/>
    <trip id="371" depart="371.00" from="-gneE11" to="gneE10"/>
    <trip id="372" depart="372.00" from="-gneE10" to="gneE11"/>
    <trip id="375" depart="375.00" from="-gneE9" to="gneE10"/>
    <trip id="376" depart="376.00" from="-gneE11" to="gneE9"/>
    <trip id="378" depart="378.00" from="-gneE11" to="gneE9"/>
    <trip id="379" depart="379.00" from="-gneE10" to="gneE11"/>
    <trip id="380" depart="380.00" from="-gneE11" to="gneE10"/>
    <trip id="381" depart="381.00" from="-gneE11" to="gneE10"/>
    <trip id="382" depart="382.00" from="-gneE11" to="gneE9"/>
    <trip id="383" depart="383.00" from="-gneE10" to="gneE9"/>
    <trip id="384" depart="384.00" from="-gneE10" to="gneE9"/>
    <trip id="385" depart="385.00" from="-gneE10" to="gneE12"/>
    <trip id="387" depart="387.00" from="-gneE9" to="gneE10"/>
    <trip id="388" depart="388.00" from="-gneE10" to="gneE11"/>
    <trip id="389" depart="389.00" from="-gneE11" to="gneE12"/>
    <trip id="390" depart="390.00" from="-gneE9" to="gneE10"/>
    <trip id="391" depart="391.00" from="-gneE9" to="gneE10"/>
    <trip id="392" depart="392.00" from="-gneE9" to="gneE10"/>
    <trip id="393" depart="393.00" from="-gneE11" to="gneE10"/>
    <trip id="394" depart="394.00" from="-gneE12" to="gneE10"/>
    <trip id="395" depart="395.00" from="-gneE12" to="gneE10"/>
    <trip id="396" depart="396.00" from="-gneE10" to="gneE11"/>
    <trip id="397" depart="397.00" from="-gneE11" to="gneE10"/>
    <trip id="399" depart="399.00" from="-gneE10" to="gneE12"/>
    <trip id="401" depart="401.00" from="-gneE11" to="gneE10"/>
    <trip id="402" depart="402.00" from="-gneE10" to="gneE11"/>
    <trip id="403" depart="403.00" from="-gneE11" to="gneE9"/>
    <trip id="404" depart="404.00" from="-gneE11" to="gneE10"/>
    <trip id="406" depart="406.00" from="-gneE10" to="gneE12"/>
    <trip id="407" depart="407.00" from="-gneE10" to="gneE9"/>
    <trip id="409" depart="409.00" from="-gneE9" to="gneE11"/>
    <trip id="410" depart="410.00" from="-gneE12" to="gneE9"/>
    <trip id="412" depart="412.00" from="-gneE9" to="gneE12"/>
    <trip id="415" depart="415.00" from="-gneE10" to="gneE12"/>
    <trip id="416" depart="416.00" from="-gneE10" to="gneE12"/>
    <trip id="418" depart="418.00" from="-gneE9" to="gneE11"/>
    <trip id="420" depart="420.00" from="-gneE10" to="gneE9"/>
    <trip id="421" depart="421.00" from="-gneE9" to="gneE11"/>
    <trip id="424" depart="424.00" from="-gneE10" to="gneE12"/>
    <trip id="425" depart="425.00" from="-gneE11" to="gneE10"/>
    <trip id="426" depart="426.00" from="-gneE12" to="gneE10"/>
    <trip id="427" depart="427.00" from="-gneE11" to="gneE10"/>
    <trip id="428" depart="428.00" from="-gneE12" to="gneE11"/>
    <trip id="429" depart="429.00" from="-gneE9" to="gneE12"/>
    <trip id="430" depart="430.00" from="-gneE12" to="gneE11"/>
    <trip id="432" depart="432.00" from="-gneE9" to="gneE11"/>
    <trip id="433" depart="433.00" from="-gneE9" to="gneE10"/>
    <trip id="434" depart="434.00" from="-gneE11" to="gneE10"/>
    <trip id="435" depart="435.00" from="-gneE12" to="gneE10"/>
    <trip id="436" depart="436.00" from="-gneE10" to="gneE12"/>
    <trip id="437" depart="437.00" from="-gneE12" to="gneE11"/>
    <trip id="438" depart="438.00" from="-gneE9" to="gneE10"/>
    <trip id="439" depart="439.00" from="-gneE11" to="gneE10"/>
    <trip id="440" depart="440.00" from="-gneE12" to="gneE11"/>
    <trip id="441" depart="441.00" from="-gneE10" to="gneE12"/>
    <trip id="442" depart="442.00" from="-gneE11" to="gneE10"/>
    <trip id="443" depart="443.00" from="-gneE10" to="gneE11"/>
    <trip id="445" depart="445.00" from="-gneE10" to="gneE9"/>
    <trip id="446" depart="446.00" from="-gneE11" to="gneE10"/>
    <trip id="447" depart="447.00" from="-gneE11" to="gneE9"/>
    <trip id="448" depart="448.00" from="-gneE10" to="gneE12"/>
    <trip id="449" depart="449.00" from="-gneE9" to="gneE10"/>
    <trip id="450" depart="450.00" from="-gneE11" to="gneE10"/>
    <trip id="451" depart="451.00" from="-gneE9" to="gneE12"/>
    <trip id="454" depart="454.00" from="-gneE10" to="gneE11"/>
    <trip id="455" depart="455.00" from="-gneE9" to="gneE12"/>
    <trip id="456" depart="456.00" from="-gneE12" to="gneE10"/>
    <trip id="457" depart="457.00" from="-gneE9" to="gneE10"/>
    <trip id="458" depart="458.00" from="-gneE9" to="gneE11"/>
    <trip id="459" depart="459.00" from="-gneE11" to="gneE10"/>
    <trip id="460" depart="460.00" from="-gneE11" to="gneE10"/>
    <trip id="461" depart="461.00" from="-gneE10" to="gneE11"/>
    <trip id="463" depart="463.00" from="-gneE10" to="gneE12"/>
    <trip id="465" depart="465.00" from="-gneE9" to="gneE11"/>
    <trip id="468" depart="468.00" from="-gneE10" to="gneE11"/>
    <trip id="469" depart="469.00" from="-gneE10" to="gneE9"/>
    <trip id="470" depart="470.00" from="-gneE9" to="gneE10"/>
    <trip id="471" depart="471.00" from="-gneE10" to="gneE12"/>
    <trip id="473" depart="473.00" from="-gneE11" to="gneE9"/>
    <trip id="474" depart="474.00" from="-gneE10" to="gneE11"/>
    <trip id="475" depart="475.00" from="-gneE11" to="gneE12"/>
    <trip id="476" depart="476.00" from="-gneE10" to="gneE12"/>
    <trip id="477" depart="477.00" from="-gneE12" to="gneE10"/>
    <trip id="478" depart="478.00" from="-gneE10" to="gneE12"/>
    <trip id="479" depart="479.00" from="-gneE12" to="gneE9"/>
    <trip id="480" depart="480.00" from="-gneE11" to="gneE10"/>
    <trip id="481" depart="481.00" from="-gneE9" to="gneE11"/>
    <trip id="482" depart="482.00" from="-gneE12" to="gneE9"/>
    <trip id="483" depart="483.00" from="-gneE10" to="gneE9"/>
    <trip id="484" depart="484.00" from="-gneE9" to="gneE10"/>
    <trip id="486" depart="486.00" from="-gneE12" to="gneE10"/>
    <trip id="487" depart="487.00" from="-gneE12" to="gneE10"/>
    <trip id="489" depart="489.00" from="-gneE12" to="gneE10"/>
    <trip id="492" depart="492.00" from="-gneE11" to="gneE10"/>
    <trip id="493" depart="493.00" from="-gneE9" to="gneE11"/>
    <trip id="494" depart="494.00" from="-gneE10" to="gneE11"/>
    <trip id="495" depart="495.00" from="-gneE12" to="gneE10"/>
    <trip id="497" depart="497.00" from="-gneE11" to="gneE12"/>
    <trip id="499" depart="499.00" from="-gneE9" to="gneE12"/>
    <trip id="501" depart="501.00" from="-gneE9" to="gneE12"/>
    <trip id="502" depart="502.00" from="-gneE10" to="gneE9"/>
    <trip id="503" depart="503.00" from="-gneE11" to="gneE10"/>
    <trip id="505" depart="505.00" from="-gneE11" to="gneE10"/>
    <trip id="506" depart="506.00" from="-gneE12" to="gneE9"/>
    <trip id="507" depart="507.00" from="-gneE12" to="gneE10"/>
    <trip id="508" depart="508.00" from="-gneE12" to="gneE10"/>
    <trip id="509" depart="509.00" from="-gneE10" to="gneE9"/>
    <trip id="510" depart="510.00" from="-gneE11" to="gneE9"/>
    <trip id="512" depart="512.00" from="-gneE10" to="gneE9"/>
    <trip id="513" depart="513.00" from="-gneE11" to="gneE10"/>
    <trip id="514" depart="514.00" from="-gneE10" to="gneE11"/>
    <trip id="515" depart="515.00" from="-gneE10" to="gneE11"/>
    <trip id="516" depart="516.00" from="-gneE10" to="gneE12"/>
    <trip id="517" depart="517.00" from="-gneE10" to="gneE11"/>
    <trip id="519" depart="519.00" from="-gneE12" to="gneE11"/>
    <trip id="521" depart="521.00" from="-gneE11" to="gneE10"/>
    <trip id="522" depart="522.00" from="-gneE9" to="gneE11"/>
    <trip id="523" depart="523.00" from="-gneE11" to="gneE10"/>
    <trip id="524" depart="524.00" from="-gneE11" to="gneE9"/>
    <trip id="525" depart="525.00" from="-gneE9" to="gneE10"/>
    <trip id="527" depart="527.00" from="-gneE11" to="gneE10"/>
    <trip id="528" depart="528.00" from="-gneE12" to="gneE11"/>
    <trip id="529" depart="529.00" from="-gneE12" to="gneE11"/>
    <trip id="530" depart="530.00" from="-gneE11" to="gneE10"/>
    <trip id="531" depart="531.00" from="-gneE12" to="gneE10"/>
    <trip id="533" depart="533.00" from="-gneE10" to="gneE11"/>
    <trip id="534" depart="534.00" from="-gneE11" to="gneE12"/>
    <trip id="535" depart="535.00" from="-gneE10" to="gneE9"/>
    <trip id="536" depart="536.00" from="-gneE12" to="gneE11"/>
    <trip id="537" depart="537.00" from="-gneE11" to="gneE9"/>
    <trip id="538" depart="538.00" from="-gneE11" to="gneE9"/>
    <trip id="539" depart="539.00" from="-gneE10" to="gneE12"/>
    <trip id="541" depart="541.00" from="-gneE9" to="gneE11"/>
    <trip id="542" depart="542.00" from="-gneE11" to="gneE10"/>
    <trip id="543" depart="543.00" from="-gneE12" to="gneE11"/>
    <trip id="544" depart="544.00" from="-gneE11" to="gneE10"/>
    <trip id="546" depart="546.00" from="-gneE10" to="gneE11"/>
    <trip id="547" depart="547.00" from="-gneE10" to="gneE9"/>
    <trip id="548" depart="548.00" from="-gneE9" to="gneE11"/>
    <trip id="551" depart="551.00" from="-gneE9" to="gneE12"/>
    <trip id="552" depart="552.00" from="-gneE10" to="gneE12"/>
    <trip id="553" depart="553.00" from="-gneE10" to="gneE11"/>
    <trip id="554" depart="554.00" from="-gneE10" to="gneE11"/>
    <trip id="555" depart="555.00" from="-gneE10" to="gneE9"/>
    <trip id="556" depart="556.00" from="-gneE11" to="gneE9"/>
    <trip id="557" depart="557.00" from="-gneE11" to="gneE10"/>
    <trip id="559" depart="559.00" from="-gneE12" to="gneE11"/>
    <trip id="560" depart="560.00" from="-gneE10" to="gneE12"/>
    <trip id="561" depart="561.00" from="-gneE9" to="gneE10"/>
    <trip id="562" depart="562.00" from="-gneE10" to="gneE9"/>
    <trip id="563" depart="563.00" from="-gneE12" to="gneE11"/>
    <trip id="564" depart="564.00" from="-gneE10" to="gneE12"/>
    <trip id="565" depart="565.00" from="-gneE10" to="gneE11"/>
    <trip id="566" depart="566.00" from="-gneE10" to="gneE11"/>
    <trip id="567" depart="567.00" from="-gneE11" to="gneE9"/>
    <trip id="569" depart="569.00" from="-gneE11" to="gneE10"/>
    <trip id="572" depart="572.00" from="-gneE9" to="gneE12"/>
    <trip id="573" depart="573.00" from="-gneE12" to="gneE10"/>
    <trip id="574" depart="574.00" from="-gneE12" to="gneE11"/>
    <trip id="576" depart="576.00" from="-gneE12" to="gneE11"/>
    <trip id="577" depart="577.00" from="-gneE10" to="gneE11"/>
    <trip id="578" depart="578.00" from="-gneE10" to="gneE11"/>
    <trip id="579" depart="579.00" from="-gneE9" to="gneE10"/>
    <trip id="580" depart="580.00" from="-gneE9" to="gneE10"/>
    <trip id="581" depart="581.00" from="-gneE11" to="gneE10"/>
    <trip id="582" depart="582.00" from="-gneE12" to="gneE10"/>
    <trip id="583" depart="583.00" from="-gneE11" to="gneE10"/>
    <trip id="584" depart="584.00" from="-gneE11" to="gneE9"/>
    <trip id="585" depart="585.00" from="-gneE11" to="gneE12"/>
    <trip id="586" depart="586.00" from="-gneE10" to="gneE11"/>
    <trip id="589" depart="589.00" from="-gneE11" to="gneE12"/>
    <trip id="591" depart="591.00" from="-gneE12" to="gneE11"/>
    <trip id="593" depart="593.00" from="-gneE10" to="gneE9"/>
    <trip id="594" depart="594.00" from="-gneE10" to="gneE9"/>
    <trip id="595" depart="595.00" from="-gneE10" to="gneE11"/>
    <trip id="596" depart="596.00" from="-gneE10" to="gneE12"/>
    <trip id="597" depart="597.00" from="-gneE10" to="gneE12"/>
    <trip id="598" depart="598.00" from="-gneE11" to="gneE9"/>
    <trip id="599" depart="599.00" from="-gneE12" to="gneE11"/>
    <trip id="600" depart="600.00" from="-gneE12" to="gneE9"/>
    <trip id="601" depart="601.00" from="-gneE11" to="gneE9"/>
    <trip id="602" depart="602.00" from="-gneE10" to="gneE12"/>
    <trip id="604" depart="604.00" from="-gneE9" to="gneE12"/>
    <trip id="606" depart="606.00" from="-gneE10" to="gneE12"/>
    <trip id="607" depart="607.00" from="-gneE10" to="gneE11"/>
    <trip id="608" depart="608.00" from="-gneE11" to="gneE12"/>
    <trip id="609" depart="609.00" from="-gneE11" to="gneE9"/>
    <trip id="610" depart="610.00" from="-gneE11" to="gneE9"/>
    <trip id="611" depart="611.00" from="-gneE9" to="gneE12"/>
    <trip id="612" depart="612.00" from="-gneE10" to="gneE11"/>
    <trip id="614" depart="614.00" from="-gneE11" to="gneE12"/>
    <trip id="615" depart="615.00" from="-gneE11" to="gneE9"/>
    <trip id="616" depart="616.00" from="-gneE11" to="gneE12"/>
    <trip id="617" depart="617.00" from="-gneE12" to="gneE10"/>
    <trip id="618" depart="618.00" from="-gneE9" to="gneE10"/>
    <trip id="620" depart="620.00" from="-gneE11" to="gneE9"/>
    <trip id="621" depart="621.00" from="-gneE11" to="gneE10"/>
    <trip id="622" depart="622.00" from="-gneE11" to="gneE9"/>