<?xml version="1.0" encoding="UTF-8"?>

<!-- generated on 08/05/20 16:42:09 by Eclipse SUMO netedit Version 1.6.0
<configuration xmlns:xsi="http://www.w3.org/2001/XMLSchema-instance" xsi:noNamespaceSchemaLocation="http://sumo.dlr.de/xsd/netconvertConfiguration.xsd">

    <input>
        <sumo-net-file value="C:\Users\REVSMILE\Documents\Sumo\Demo3\Road%20network\map.net.xml"/>
    </input>

    <output>
        <output-file value="C:\Users\REVSMILE\Documents\Sumo\Demo3\Road%20network\map.net.xml"/>
    </output>

    <processing>
        <geometry.min-radius.fix.railways value="false"/>
        <geometry.max-grade.fix value="false"/>
        <offset.disable-normalization value="true"/>
        <lefthand value="true"/>
    </processing>

    <junctions>
        <no-turnarounds value="true"/>
        <junctions.corner-detail value="5"/>
        <junctions.limit-turn-speed value="5.5"/>
        <rectangular-lane-cut value="false"/>
    </junctions>

    <pedestrian>
        <walkingareas value="false"/>
    </pedestrian>

    <report>
        <aggregate-warnings value="5"/>
    </report>

</configuration>
-->

<net version="1.6" junctionCornerDetail="5" lefthand="true" limitTurnSpeed="5.50" xmlns:xsi="http://www.w3.org/2001/XMLSchema-instance" xsi:noNamespaceSchemaLocation="http://sumo.dlr.de/xsd/net_file.xsd">

    <location netOffset="-620699.78,2849494.03" convBoundary="-172.40,0.00,421.22,519.76" origBoundary="28.203556,-25.758530,28.208142,-25.754286" projParameter="+proj=utm +zone=35 +ellps=WGS84 +datum=WGS84 +units=m +no_defs"/>

    <type id="highway.bridleway" priority="1" numLanes="1" speed="2.78" allow="pedestrian" oneway="1" width="2.00"/>
    <type id="highway.bus_guideway" priority="1" numLanes="1" speed="27.78" allow="bus" oneway="1"/>
    <type id="highway.cycleway" priority="1" numLanes="1" speed="8.33" allow="bicycle" oneway="0" width="1.00"/>
    <type id="highway.footway" priority="1" numLanes="1" speed="2.78" allow="pedestrian" oneway="1" width="2.00"/>
    <type id="highway.ford" priority="1" numLanes="1" speed="2.78" allow="army" oneway="0"/>
    <type id="highway.living_street" priority="2" numLanes="1" speed="2.78" disallow="tram rail_urban rail rail_electric rail_fast ship" oneway="0"/>
    <type id="highway.motorway" priority="14" numLanes="2" speed="39.44" allow="private emergency authority army vip passenger hov taxi bus coach delivery truck trailer motorcycle evehicle custom1 custom2" oneway="1"/>
    <type id="highway.motorway_link" priority="9" numLanes="1" speed="22.22" allow="private emergency authority army vip passenger hov taxi bus coach delivery truck trailer motorcycle evehicle custom1 custom2" oneway="1"/>
    <type id="highway.path" priority="1" numLanes="1" speed="2.78" allow="pedestrian bicycle" oneway="1" width="2.00"/>
    <type id="highway.pedestrian" priority="1" numLanes="1" speed="2.78" allow="pedestrian" oneway="1" width="2.00"/>
    <type id="highway.primary" priority="12" numLanes="2" speed="27.78" disallow="tram rail_urban rail rail_electric rail_fast ship" oneway="0"/>
    <type id="highway.primary_link" priority="7" numLanes="1" speed="22.22" disallow="tram rail_urban rail rail_electric rail_fast ship" oneway="0"/>
    <type id="highway.raceway" priority="15" numLanes="2" speed="83.33" allow="vip" oneway="0"/>
    <type id="highway.residential" priority="3" numLanes="1" speed="13.89" disallow="tram rail_urban rail rail_electric rail_fast ship" oneway="0"/>
    <type id="highway.secondary" priority="11" numLanes="1" speed="27.78" disallow="tram rail_urban rail rail_electric rail_fast ship" oneway="0"/>
    <type id="highway.secondary_link" priority="6" numLanes="1" speed="22.22" disallow="tram rail_urban rail rail_electric rail_fast ship" oneway="0"/>
    <type id="highway.service" priority="1" numLanes="1" speed="5.56" allow="pedestrian delivery bicycle" oneway="0"/>
    <type id="highway.stairs" priority="1" numLanes="1" speed="1.39" allow="pedestrian" oneway="1" width="2.00"/>
    <type id="highway.step" priority="1" numLanes="1" speed="1.39" allow="pedestrian" oneway="1" width="2.00"/>
    <type id="highway.steps" priority="1" numLanes="1" speed="1.39" allow="pedestrian" oneway="1" width="2.00"/>
    <type id="highway.tertiary" priority="10" numLanes="1" speed="22.22" disallow="tram rail_urban rail rail_electric rail_fast ship" oneway="0"/>
    <type id="highway.tertiary_link" priority="5" numLanes="1" speed="22.22" disallow="tram rail_urban rail rail_electric rail_fast ship" oneway="0"/>
    <type id="highway.track" priority="1" numLanes="1" speed="5.56" disallow="tram rail_urban rail rail_electric rail_fast ship" oneway="0"/>
    <type id="highway.trunk" priority="13" numLanes="2" speed="27.78" disallow="pedestrian bicycle tram rail_urban rail rail_electric rail_fast ship" oneway="0"/>
    <type id="highway.trunk_link" priority="8" numLanes="1" speed="22.22" disallow="pedestrian bicycle tram rail_urban rail rail_electric rail_fast ship" oneway="0"/>
    <type id="highway.unclassified" priority="4" numLanes="1" speed="13.89" disallow="tram rail_urban rail rail_electric rail_fast ship" oneway="0"/>
    <type id="highway.unsurfaced" priority="1" numLanes="1" speed="8.33" disallow="tram rail_urban rail rail_electric rail_fast ship" oneway="0"/>
    <type id="railway.highspeed" priority="21" numLanes="1" speed="69.44" allow="rail_fast" oneway="1"/>
    <type id="railway.light_rail" priority="19" numLanes="1" speed="27.78" allow="rail_urban" oneway="1"/>
    <type id="railway.preserved" priority="16" numLanes="1" speed="27.78" allow="rail" oneway="1"/>
    <type id="railway.rail" priority="20" numLanes="1" speed="44.44" allow="rail" oneway="1"/>
    <type id="railway.subway" priority="18" numLanes="1" speed="27.78" allow="rail_urban" oneway="1"/>
    <type id="railway.tram" priority="17" numLanes="1" speed="13.89" allow="tram" oneway="1"/>

    <edge id=":25326833_0" function="internal">
        <lane id=":25326833_0_0" index="0" disallow="tram rail_urban rail rail_electric rail_fast ship" speed="7.10" length="10.23" shape="174.51,352.19 172.14,352.86 169.94,352.49 167.91,351.08 166.06,348.64"/>
    </edge>
    <edge id=":25326833_1" function="internal">
        <lane id=":25326833_1_0" index="0" disallow="tram rail_urban rail rail_electric rail_fast ship" speed="13.89" length="21.02" shape="174.51,352.19 155.44,360.85"/>
        <lane id=":25326833_1_1" index="1" disallow="tram rail_urban rail rail_electric rail_fast ship" speed="13.89" length="21.02" shape="175.90,355.07 156.70,363.79"/>
    </edge>
    <edge id=":25326833_3" function="internal">
        <lane id=":25326833_3_0" index="0" disallow="tram rail_urban rail rail_electric rail_fast ship" speed="9.74" length="6.42" shape="175.90,355.07 171.70,357.95 170.97,359.07"/>
    </edge>
    <edge id=":25326833_4" function="internal">
        <lane id=":25326833_4_0" index="0" disallow="tram rail_urban rail rail_electric rail_fast ship" speed="3.65" length="2.34" shape="175.90,355.07 175.17,356.32 175.16,357.21"/>
    </edge>
    <edge id=":25326833_16" function="internal">
        <lane id=":25326833_16_0" index="0" disallow="tram rail_urban rail rail_electric rail_fast ship" speed="9.74" length="13.21" shape="170.97,359.07 169.28,361.66 168.63,366.21 169.76,371.60"/>
    </edge>
    <edge id=":25326833_17" function="internal">
        <lane id=":25326833_17_0" index="0" disallow="tram rail_urban rail rail_electric rail_fast ship" speed="3.65" length="2.34" shape="175.16,357.21 175.86,357.76 177.29,357.96"/>
    </edge>
    <edge id=":25326833_5" function="internal">
        <lane id=":25326833_5_0" index="0" disallow="tram rail_urban rail rail_electric rail_fast ship" speed="7.90" length="12.58" shape="172.78,370.56 172.38,367.74 173.24,365.18 175.34,362.88 178.68,360.84"/>
    </edge>
    <edge id=":25326833_6" function="internal">
        <lane id=":25326833_6_0" index="0" speed="13.89" length="22.42" shape="172.78,370.56 171.33,366.60 169.35,361.87 166.72,356.40 163.31,350.27"/>
    </edge>
    <edge id=":25326833_7" function="internal">
        <lane id=":25326833_7_0" index="0" speed="9.22" length="7.15" shape="172.78,370.56 170.23,365.67 168.94,364.66"/>
    </edge>
    <edge id=":25326833_18" function="internal">
        <lane id=":25326833_18_0" index="0" speed="9.22" length="13.09" shape="168.94,364.66 166.70,362.91 162.19,362.28 156.70,363.79"/>
    </edge>
    <edge id=":25326833_8" function="internal">
        <lane id=":25326833_8_0" index="0" speed="6.46" length="9.37" shape="159.22,369.67 161.81,368.95 163.92,369.20 165.56,370.44 166.73,372.65"/>
    </edge>
    <edge id=":25326833_9" function="internal">
        <lane id=":25326833_9_0" index="0" disallow="tram rail_urban rail rail_electric rail_fast ship" speed="13.89" length="21.30" shape="159.22,369.67 178.68,360.84"/>
        <lane id=":25326833_9_1" index="1" disallow="tram rail_urban rail rail_electric rail_fast ship" speed="13.89" length="21.30" shape="157.96,366.73 177.29,357.96"/>
    </edge>
    <edge id=":25326833_11" function="internal">
        <lane id=":25326833_11_0" index="0" speed="9.07" length="7.41" shape="157.96,366.73 162.82,363.76 163.77,362.33"/>
    </edge>
    <edge id=":25326833_19" function="internal">
        <lane id=":25326833_19_0" index="0" speed="9.07" length="12.97" shape="163.77,362.33 165.33,360.02 165.49,355.53 163.31,350.27"/>
    </edge>
    <edge id=":25326833_12" function="internal">
        <lane id=":25326833_12_0" index="0" speed="6.24" length="9.05" shape="157.81,353.54 158.78,355.88 158.71,357.87 157.59,359.53 155.44,360.85"/>
    </edge>
    <edge id=":25326833_13" function="internal">
        <lane id=":25326833_13_0" index="0" speed="13.89" length="21.47" shape="157.81,353.54 160.90,358.82 162.96,362.78 164.68,366.89 166.73,372.65"/>
        <lane id=":25326833_13_1" index="1" speed="13.89" length="21.47" shape="160.56,351.91 163.69,357.28 165.85,361.44 167.66,365.75 169.76,371.60"/>
    </edge>
    <edge id=":25326833_15" function="internal">
        <lane id=":25326833_15_0" index="0" disallow="tram rail_urban rail rail_electric rail_fast ship" speed="9.69" length="7.20" shape="160.56,351.91 164.05,356.40 165.33,357.21"/>
    </edge>
    <edge id=":25326833_20" function="internal">
        <lane id=":25326833_20_0" index="0" disallow="tram rail_urban rail rail_electric rail_fast ship" speed="9.69" length="12.70" shape="165.33,357.21 168.01,358.90 172.42,359.42 177.29,357.96"/>
    </edge>
    <edge id=":7591091184_0" function="internal">
        <lane id=":7591091184_0_0" index="0" disallow="tram rail_urban rail rail_electric rail_fast ship" speed="13.89" length="1.94" shape="237.60,321.46 237.45,321.71 237.32,321.86 237.16,321.97 236.91,322.10"/>
        <lane id=":7591091184_0_1" index="1" disallow="tram rail_urban rail rail_electric rail_fast ship" speed="7.20" length="1.94" shape="240.37,323.06 239.93,323.79 239.55,324.25 239.06,324.60 238.30,324.99"/>
    </edge>
    <edge id=":7591091184_2" function="internal">
        <lane id=":7591091184_2_0" index="0" disallow="tram rail_urban rail rail_electric rail_fast ship" speed="10.73" length="5.81" shape="241.08,330.75 242.86,329.85 243.99,329.04 244.88,327.97 245.91,326.26"/>
        <lane id=":7591091184_2_1" index="1" disallow="tram rail_urban rail rail_electric rail_fast ship" speed="9.14" length="5.81" shape="239.69,327.87 240.96,327.22 241.77,326.65 242.40,325.88 243.14,324.66"/>
    </edge>
    <edge id=":7591091184_4" function="internal">
        <lane id=":7591091184_4_0" index="0" disallow="tram rail_urban rail rail_electric rail_fast ship" speed="3.65" length="2.46" shape="239.69,327.87 240.42,326.63 240.43,325.73 240.33,325.66"/>
    </edge>
    <edge id=":7591091184_5" function="internal">
        <lane id=":7591091184_5_0" index="0" disallow="tram rail_urban rail rail_electric rail_fast ship" speed="3.65" length="2.21" shape="240.33,325.66 239.73,325.19 238.30,324.99"/>
    </edge>
    <edge id=":gneJ11_0" function="internal">
        <lane id=":gneJ11_0_0" index="0" speed="13.89" length="14.24" shape="80.96,392.81 67.86,398.29"/>
        <lane id=":gneJ11_0_1" index="1" speed="13.89" length="14.24" shape="82.23,395.75 69.06,401.26"/>
    </edge>
    <edge id=":gneJ11_2" function="internal">
        <lane id=":gneJ11_2_0" index="0" speed="8.51" length="5.41" shape="82.23,395.75 78.74,398.10 78.20,399.17"/>
    </edge>
    <edge id=":gneJ11_8" function="internal">
        <lane id=":gneJ11_8_0" index="0" speed="8.51" length="12.02" shape="78.20,399.17 77.11,401.34 77.34,405.47 79.44,410.50"/>
    </edge>
    <edge id=":gneJ11_3" function="internal">
        <lane id=":gneJ11_3_0" index="0" speed="6.30" length="9.04" shape="82.24,408.96 81.35,406.61 81.47,404.60 82.61,402.94 84.75,401.63"/>
    </edge>
    <edge id=":gneJ11_4" function="internal">
        <lane id=":gneJ11_4_0" index="0" speed="9.06" length="16.81" shape="82.24,408.96 79.21,404.48 76.00,401.71 72.62,400.63 69.06,401.26"/>
    </edge>
    <edge id=":gneJ11_5" function="internal">
        <lane id=":gneJ11_5_0" index="0" speed="6.99" length="9.60" shape="71.46,407.19 73.84,406.64 75.97,407.00 77.83,408.29 79.44,410.50"/>
    </edge>
    <edge id=":gneJ11_6" function="internal">
        <lane id=":gneJ11_6_0" index="0" speed="13.89" length="14.37" shape="71.46,407.19 84.75,401.63"/>
        <lane id=":gneJ11_6_1" index="1" speed="13.89" length="14.37" shape="70.26,404.22 83.49,398.69"/>
    </edge>
    <edge id=":gneJ12_0" function="internal">
        <lane id=":gneJ12_0_0" index="0" speed="3.90" length="2.58" shape="134.88,500.93 134.22,501.18 133.63,501.16 133.13,500.87 132.70,500.30"/>
    </edge>
    <edge id=":gneJ12_1" function="internal">
        <lane id=":gneJ12_1_0" index="0" speed="6.08" length="7.74" shape="129.90,501.85 131.18,503.54 132.69,504.42 134.44,504.48 136.43,503.73"/>
    </edge>
    <edge id=":gneJ19_0" function="internal">
        <lane id=":gneJ19_0_0" index="0" speed="8.26" length="7.94" shape="7.62,422.69 5.65,423.25 3.73,423.32 1.85,422.91 0.01,422.01"/>
    </edge>
    <edge id=":gneJ19_1" function="internal">
        <lane id=":gneJ19_1_0" index="0" speed="12.23" length="13.29" shape="8.82,425.65 5.48,427.65 3.73,430.06 2.70,432.88 1.53,436.10"/>
    </edge>
    <edge id=":gneJ19_2" function="internal">
        <lane id=":gneJ19_2_0" index="0" speed="10.30" length="9.31" shape="4.45,437.40 5.70,435.01 6.97,433.60 8.68,432.63 11.22,431.59"/>
    </edge>
    <edge id=":gneJ19_3" function="internal">
        <lane id=":gneJ19_3_0" index="0" speed="9.38" length="7.46" shape="4.45,437.40 5.82,432.76 5.64,430.15"/>
    </edge>
    <edge id=":gneJ19_6" function="internal">
        <lane id=":gneJ19_6_0" index="0" speed="9.38" length="10.29" shape="5.64,430.15 5.54,428.64 3.60,425.06 0.01,422.01"/>
    </edge>
    <edge id=":gneJ19_4" function="internal">
        <lane id=":gneJ19_4_0" index="0" speed="8.13" length="13.10" shape="-1.69,424.72 0.94,426.96 2.36,429.61 2.55,432.65 1.53,436.10"/>
    </edge>
    <edge id=":gneJ19_5" function="internal">
        <lane id=":gneJ19_5_0" index="0" speed="10.30" length="12.67" shape="-1.69,424.72 2.17,426.94 5.41,428.33 8.03,428.89 10.02,428.62"/>
    </edge>
    <edge id=":gneJ23_0" function="internal">
        <lane id=":gneJ23_0_0" index="0" speed="6.09" length="7.30" shape="269.48,443.86 268.42,442.19 267.06,441.21 265.41,440.92 263.48,441.33"/>
    </edge>
    <edge id=":gneJ23_1" function="internal">
        <lane id=":gneJ23_1_0" index="0" speed="3.91" length="2.43" shape="264.57,444.34 265.21,444.20 265.76,444.30 266.21,444.63 266.57,445.18"/>
    </edge>
    <edge id=":gneJ24_0" function="internal">
        <lane id=":gneJ24_0_0" index="0" speed="13.89" length="20.74" shape="141.89,295.60 122.39,302.66"/>
    </edge>
    <edge id=":gneJ24_1" function="internal">
        <lane id=":gneJ24_1_0" index="0" speed="8.43" length="7.28" shape="141.89,295.60 136.97,298.21 135.83,299.49"/>
    </edge>
    <edge id=":gneJ24_6" function="internal">
        <lane id=":gneJ24_6_0" index="0" speed="8.43" length="10.51" shape="135.83,299.49 134.20,301.32 133.57,304.94 135.09,309.05"/>
    </edge>
    <edge id=":gneJ24_2" function="internal">
        <lane id=":gneJ24_2_0" index="0" speed="6.19" length="9.05" shape="140.60,305.78 139.62,303.44 139.71,301.45 140.86,299.83 143.06,298.57"/>
    </edge>
    <edge id=":gneJ24_3" function="internal">
        <lane id=":gneJ24_3_0" index="0" speed="9.68" length="17.66" shape="137.85,307.42 135.05,304.04 131.54,302.12 127.32,301.66 122.39,302.66"/>
    </edge>
    <edge id=":gneJ24_4" function="internal">
        <lane id=":gneJ24_4_0" index="0" speed="7.79" length="11.14" shape="123.38,305.70 125.82,305.39 128.13,306.13 130.31,307.89 132.34,310.69"/>
    </edge>
    <edge id=":gneJ24_5" function="internal">
        <lane id=":gneJ24_5_0" index="0" speed="13.89" length="20.93" shape="123.38,305.70 143.06,298.57"/>
    </edge>
    <edge id=":gneJ25_0" function="internal">
        <lane id=":gneJ25_0_0" index="0" speed="3.91" length="2.38" shape="293.71,493.64 293.08,493.76 292.55,493.65 292.11,493.33 291.76,492.78"/>
    </edge>
    <edge id=":gneJ25_1" function="internal">
        <lane id=":gneJ25_1_0" index="0" speed="6.10" length="7.13" shape="288.85,494.11 289.88,495.74 291.20,496.71 292.81,497.02 294.70,496.68"/>
    </edge>
    <edge id=":gneJ26_0" function="internal">
        <lane id=":gneJ26_0_0" index="0" speed="6.64" length="6.72" shape="383.03,460.81 382.70,462.54 381.95,463.95 380.77,465.03 379.17,465.78"/>
    </edge>
    <edge id=":gneJ26_1" function="internal">
        <lane id=":gneJ26_1_0" index="0" speed="8.41" length="10.44" shape="383.03,460.81 383.18,463.56 384.01,465.92 385.51,467.90 387.69,469.49"/>
    </edge>
    <edge id=":gneJ26_2" function="internal">
        <lane id=":gneJ26_2_0" index="0" speed="6.91" length="6.81" shape="389.24,466.69 387.83,465.66 386.86,464.36 386.32,462.82 386.22,461.01"/>
    </edge>
    <edge id=":gneJ26_3" function="internal">
        <lane id=":gneJ26_3_0" index="0" speed="8.99" length="7.77" shape="380.17,468.83 382.13,468.38 384.04,468.34 385.89,468.71 387.69,469.49"/>
    </edge>
    <edge id=":gneJ26_4" function="internal">
        <lane id=":gneJ26_4_0" index="0" speed="8.17" length="10.56" shape="380.17,468.83 382.68,467.64 384.52,465.95 385.70,463.73 386.22,461.01"/>
    </edge>
    <edge id=":gneJ27_0" function="internal">
        <lane id=":gneJ27_0_0" index="0" speed="6.07" length="8.00" shape="390.33,395.37 390.15,393.17 389.31,391.59 387.80,390.62 385.62,390.27"/>
    </edge>
    <edge id=":gneJ27_1" function="internal">
        <lane id=":gneJ27_1_0" index="0" speed="3.90" length="2.67" shape="385.56,393.47 386.29,393.59 386.79,393.91 387.08,394.44 387.13,395.17"/>
    </edge>
    <edge id=":gneJ28_0" function="internal">
        <lane id=":gneJ28_0_0" index="0" speed="6.07" length="8.33" shape="333.53,389.37 331.23,389.66 329.66,390.63 328.80,392.26 328.66,394.58"/>
    </edge>
    <edge id=":gneJ28_1" function="internal">
        <lane id=":gneJ28_1_0" index="0" speed="3.90" length="2.78" shape="331.85,394.31 331.90,393.54 332.18,392.99 332.71,392.67 333.47,392.57"/>
    </edge>
    <edge id=":gneJ29_0" function="internal">
        <lane id=":gneJ29_0_0" index="0" speed="6.11" length="6.84" shape="330.30,423.39 331.99,422.70 333.16,421.62 333.79,420.17 333.89,418.34"/>
    </edge>
    <edge id=":gneJ29_1" function="internal">
        <lane id=":gneJ29_1_0" index="0" speed="3.92" length="2.28" shape="330.70,418.61 330.67,419.22 330.46,419.70 330.07,420.06 329.50,420.29"/>
    </edge>
    <edge id=":gneJ30_0" function="internal">
        <lane id=":gneJ30_0_0" index="0" speed="3.91" length="2.50" shape="315.09,423.99 314.41,424.06 313.86,423.91 313.45,423.52 313.16,422.91"/>
    </edge>
    <edge id=":gneJ30_1" function="internal">
        <lane id=":gneJ30_1_0" index="0" speed="6.08" length="7.49" shape="310.10,423.84 310.96,425.69 312.21,426.85 313.85,427.31 315.88,427.09"/>
    </edge>
    <edge id=":gneJ31_0" function="internal">
        <lane id=":gneJ31_0_0" index="0" speed="6.08" length="8.81" shape="299.75,370.42 297.35,371.05 295.87,372.29 295.32,374.14 295.70,376.59"/>
    </edge>
    <edge id=":gneJ31_1" function="internal">
        <lane id=":gneJ31_1_0" index="0" speed="3.90" length="2.94" shape="298.76,375.66 298.63,374.84 298.82,374.23 299.31,373.81 300.11,373.60"/>
    </edge>
    <edge id=":gneJ32_0" function="internal">
        <lane id=":gneJ32_0_0" index="0" speed="13.89" length="0.36" shape="350.02,364.69 349.66,364.71"/>
    </edge>
    <edge id=":gneJ32_1" function="internal">
        <lane id=":gneJ32_1_0" index="0" speed="13.89" length="0.12" shape="350.02,367.89 350.14,367.88"/>
    </edge>
    <edge id=":gneJ33_0" function="internal">
        <lane id=":gneJ33_0_0" index="0" speed="3.93" length="2.16" shape="387.86,361.97 387.68,362.51 387.36,362.90 386.93,363.15 386.36,363.25"/>
    </edge>
    <edge id=":gneJ33_1" function="internal">
        <lane id=":gneJ33_1_0" index="0" speed="6.13" length="6.48" shape="386.49,366.45 388.18,366.15 389.50,365.41 390.44,364.22 391.00,362.59"/>
    </edge>
    <edge id=":gneJ34_0" function="internal">
        <lane id=":gneJ34_0_0" index="0" speed="6.09" length="9.39" shape="394.29,346.11 394.44,343.43 393.65,341.58 391.91,340.57 389.24,340.38"/>
    </edge>
    <edge id=":gneJ34_1" function="internal">
        <lane id=":gneJ34_1_0" index="0" speed="3.91" length="3.13" shape="389.47,343.57 390.36,343.63 390.94,343.97 391.21,344.59 391.16,345.48"/>
    </edge>
    <edge id=":gneJ35_0" function="internal">
        <lane id=":gneJ35_0_0" index="0" speed="6.08" length="8.86" shape="329.33,342.26 329.40,344.76 330.27,346.48 331.96,347.43 334.45,347.60"/>
    </edge>
    <edge id=":gneJ35_1" function="internal">
        <lane id=":gneJ35_1_0" index="0" speed="3.90" length="2.95" shape="334.21,344.41 333.38,344.35 332.82,344.04 332.53,343.46 332.51,342.63"/>
    </edge>
    <edge id=":gneJ36_0" function="internal">
        <lane id=":gneJ36_0_0" index="0" speed="13.89" length="0.22" shape="331.45,323.97 331.43,324.19"/>
    </edge>
    <edge id=":gneJ36_1" function="internal">
        <lane id=":gneJ36_1_0" index="0" speed="13.89" length="0.31" shape="334.60,324.56 334.64,324.25"/>
    </edge>
    <edge id=":gneJ38_0" function="internal">
        <lane id=":gneJ38_0_0" index="0" speed="6.84" length="3.47" shape="336.68,301.31 336.74,300.29 336.66,299.58 336.37,298.92 335.79,298.08"/>
    </edge>
    <edge id=":gneJ38_1" function="internal">
        <lane id=":gneJ38_1_0" index="0" speed="4.31" length="1.16" shape="333.20,299.95 333.39,300.23 333.48,300.45 333.51,300.68 333.49,301.02"/>
    </edge>
    <edge id=":gneJ44_0" function="internal">
        <lane id=":gneJ44_0_0" index="0" speed="8.31" length="4.33" shape="46.71,327.39 45.50,327.76 44.61,327.91 43.73,327.81 42.51,327.46"/>
    </edge>
    <edge id=":gneJ44_1" function="internal">
        <lane id=":gneJ44_1_0" index="0" speed="8.65" length="6.27" shape="43.58,334.80 44.43,333.14 45.12,331.98 46.06,331.13 47.71,330.43"/>
    </edge>
    <edge id=":gneJ44_2" function="internal">
        <lane id=":gneJ44_2_0" index="0" speed="6.04" length="8.73" shape="43.58,334.80 44.74,332.12 44.95,330.00 44.20,328.45 42.51,327.46"/>
    </edge>
    <edge id=":gneJ44_3" function="internal">
        <lane id=":gneJ44_3_0" index="0" speed="9.98" length="6.37" shape="41.52,330.50 43.32,331.03 44.62,331.18 45.92,330.98 47.71,330.43"/>
    </edge>
    <edge id=":gneJ50_0" function="internal">
        <lane id=":gneJ50_0_0" index="0" speed="6.48" length="9.03" shape="209.94,460.73 207.51,461.23 205.51,460.84 203.95,459.53 202.81,457.33"/>
    </edge>
    <edge id=":gneJ50_1" function="internal">
        <lane id=":gneJ50_1_0" index="0" speed="13.89" length="17.40" shape="209.94,460.73 206.11,462.26 201.95,464.15 197.84,466.18 194.20,468.11"/>
    </edge>
    <edge id=":gneJ50_2" function="internal">
        <lane id=":gneJ50_2_0" index="0" speed="13.89" length="16.90" shape="195.75,470.91 199.32,469.01 203.27,467.05 207.27,465.24 211.03,463.74"/>
    </edge>
    <edge id=":gneJ50_3" function="internal">
        <lane id=":gneJ50_3_0" index="0" speed="9.26" length="7.29" shape="195.75,470.91 199.89,468.01 201.28,466.26"/>
    </edge>
    <edge id=":gneJ50_6" function="internal">
        <lane id=":gneJ50_6_0" index="0" speed="9.26" length="9.52" shape="201.28,466.26 202.45,464.78 203.42,461.22 202.81,457.33"/>
    </edge>
    <edge id=":gneJ50_4" function="internal">
        <lane id=":gneJ50_4_0" index="0" speed="7.25" length="9.97" shape="196.76,459.42 197.40,462.25 197.18,464.65 196.11,466.60 194.20,468.11"/>
    </edge>
    <edge id=":gneJ50_5" function="internal">
        <lane id=":gneJ50_5_0" index="0" speed="7.98" length="14.25" shape="199.79,458.38 201.58,461.85 204.05,463.91 207.20,464.53 211.03,463.74"/>
    </edge>
    <edge id=":gneJ52_0" function="internal">
        <lane id=":gneJ52_0_0" index="0" speed="4.05" length="4.34" shape="-32.82,512.95 -33.51,514.11 -34.23,514.50 -34.96,514.14 -35.71,513.01"/>
    </edge>
    <edge id=":gneJ52_1" function="internal">
        <lane id=":gneJ52_1_0" index="0" speed="6.35" length="13.02" shape="-38.57,514.45 -36.32,517.83 -34.13,518.92 -31.99,517.73 -29.90,514.25"/>
    </edge>
    <edge id=":gneJ53_0" function="internal">
        <lane id=":gneJ53_0_0" index="0" speed="6.08" length="9.01" shape="-46.87,389.42 -48.38,391.47 -48.73,393.40 -47.94,395.18 -46.00,396.84"/>
    </edge>
    <edge id=":gneJ53_1" function="internal">
        <lane id=":gneJ53_1_0" index="0" speed="3.91" length="3.00" shape="-44.29,394.13 -44.94,393.58 -45.20,392.98 -45.08,392.34 -44.58,391.66"/>
    </edge>
    <edge id=":gneJ54_0" function="internal">
        <lane id=":gneJ54_0_0" index="0" speed="9.53" length="5.82" shape="-20.86,360.60 -21.17,362.27 -21.60,363.38 -22.34,364.34 -23.54,365.57"/>
    </edge>
    <edge id=":gneJ54_1" function="internal">
        <lane id=":gneJ54_1_0" index="0" speed="6.32" length="4.69" shape="-20.86,360.60 -20.82,362.70 -20.04,364.33 -19.42,364.81"/>
    </edge>
    <edge id=":gneJ54_3" function="internal">
        <lane id=":gneJ54_3_0" index="0" speed="6.32" length="3.52" shape="-19.42,364.81 -18.51,365.51 -16.25,366.22"/>
    </edge>
    <edge id=":gneJ54_2" function="internal">
        <lane id=":gneJ54_2_0" index="0" speed="6.82" length="5.47" shape="-21.25,367.81 -20.16,366.91 -18.96,366.35 -17.66,366.12 -16.25,366.22"/>
    </edge>
    <edge id=":gneJ55_0" function="internal">
        <lane id=":gneJ55_0_0" index="0" speed="3.95" length="2.01" shape="21.29,373.03 21.82,373.06 22.28,372.94 22.67,372.66 22.98,372.23"/>
    </edge>
    <edge id=":gneJ56_0" function="internal">
        <lane id=":gneJ56_0_0" index="0" speed="6.69" length="6.28" shape="-7.43,311.26 -8.92,310.57 -10.05,309.58 -10.83,308.29 -11.25,306.71"/>
    </edge>
    <edge id=":gneJ56_1" function="internal">
        <lane id=":gneJ56_1_0" index="0" speed="6.67" length="3.40" shape="-7.43,311.26 -10.17,310.87 -10.76,311.09"/>
    </edge>
    <edge id=":gneJ56_4" function="internal">
        <lane id=":gneJ56_4_0" index="0" speed="6.67" length="7.41" shape="-10.76,311.09 -12.27,311.67 -13.75,313.67 -14.61,316.86"/>
    </edge>
    <edge id=":gneJ56_2" function="internal">
        <lane id=":gneJ56_2_0" index="0" speed="13.89" length="9.76" shape="-14.42,307.15 -14.07,310.02 -14.00,312.00 -14.19,313.99 -14.61,316.86"/>
    </edge>
    <edge id=":gneJ56_3" function="internal">
        <lane id=":gneJ56_3_0" index="0" speed="8.24" length="9.88" shape="-14.42,307.15 -13.76,309.64 -12.54,311.67 -10.76,313.22 -8.42,314.30"/>
    </edge>
    <edge id=":gneJ58_0" function="internal">
        <lane id=":gneJ58_0_0" index="0" speed="13.89" length="12.38" shape="-16.51,236.80 -19.74,237.64 -22.54,238.17 -25.37,238.49 -28.71,238.65"/>
    </edge>
    <edge id=":gneJ58_1" function="internal">
        <lane id=":gneJ58_1_0" index="0" speed="8.09" length="5.33" shape="-16.51,236.80 -19.72,238.20 -21.02,239.49"/>
    </edge>
    <edge id=":gneJ58_6" function="internal">
        <lane id=":gneJ58_6_0" index="0" speed="8.09" length="7.72" shape="-21.02,239.49 -21.85,240.31 -22.92,243.14 -22.91,246.67"/>
    </edge>
    <edge id=":gneJ58_2" function="internal">
        <lane id=":gneJ58_2_0" index="0" speed="6.60" length="8.38" shape="-19.74,246.22 -19.75,243.95 -19.07,242.14 -17.70,240.78 -15.64,239.88"/>
    </edge>
    <edge id=":gneJ58_3" function="internal">
        <lane id=":gneJ58_3_0" index="0" speed="8.03" length="13.09" shape="-19.74,246.22 -20.71,242.82 -22.53,240.43 -25.20,239.04 -28.71,238.65"/>
    </edge>
    <edge id=":gneJ58_4" function="internal">
        <lane id=":gneJ58_4_0" index="0" speed="6.53" length="8.33" shape="-28.62,241.85 -26.38,242.09 -24.68,242.98 -23.53,244.50 -22.91,246.67"/>
    </edge>
    <edge id=":gneJ58_5" function="internal">
        <lane id=":gneJ58_5_0" index="0" speed="13.89" length="13.16" shape="-28.62,241.85 -25.16,241.67 -22.06,241.31 -19.00,240.74 -15.64,239.88"/>
    </edge>
    <edge id=":gneJ59_0" function="internal">
        <lane id=":gneJ59_0_0" index="0" speed="6.15" length="10.60" shape="-167.43,242.69 -170.51,243.21 -172.23,244.54 -172.58,246.69 -171.58,249.65"/>
    </edge>
    <edge id=":gneJ59_1" function="internal">