

<routes>
   <vType id="car"
   			vClass="passenger" length="5" accel="3.5" decel="2.2"
   			sigma="1.0" maxSpeed="10"/>

   <vType id="ev"
      		vClass="emergency" length="7" accel="5.5" decel="2.2" sigma="1.0"
      		maxSpeed="20" guiShape="emergency" speedFactor="2.0"
      		minGapLat="0.2"/>


          <flow id="carflow_0" type="car" beg="0" end="0" number="4" from="-gneE6" to="gneE5" depart="0"/>
          <flow id="carflow_1" type="car" beg="0" end="0" number="4" from="-gneE6" to="gneE7" depart="0"/>

          <flow id="carflow_2" type="car" beg="0" end="0" number="5" from="-gneE5" to="gneE7" depart="0"/>
          <flow id="carflow_3" type="car" beg="0" end="0" number="2" from="-gneE5" to="gneE6" depart="0"/>


          <flow id="carflow_4" type="car" beg="0" end="0" number="2" from="-gneE7" to="gneE6" depart="0"/>
          <flow id="carflow_5" type="car" beg="0" end="0" number="5" from="-gneE7" to="gneE5" depart="0"/>
    

          <flow id="evflow_0" type="ev" beg="0" end="0" number="1" from="-gneE7" to="gneE5"/>
          <flow id="evflow_1" type="ev" beg="0" end="0" number="1" from="-gneE7" to="gneE6"/>

          <flow id="evflow_10" type="ev" beg="0" end="0" number="1" from="-gneE5" to="gneE7"/>
          <flow id="evflow_11" type="ev" beg="0" end="0" number="1" from="-gneE5" to="gneE6"/>

          <flow id="evflow_20" type="ev" beg="0" end="0" number="1" from="-gneE6" to="gneE7"/>
          <flow id="evflow_21" type="ev" beg="0" end="0" number="1" from="-gneE6" to="gneE5"/>



</routes>
