<?xml version="1.0" encoding="UTF-8"?>

<!-- generated on 09/16/20 03:54:08 by Eclipse SUMO netconvert Version 1.6.0
<configuration xmlns:xsi="http://www.w3.org/2001/XMLSchema-instance" xsi:noNamespaceSchemaLocation="http://sumo.dlr.de/xsd/netconvertConfiguration.xsd">

    <input>
        <node-files value="C:\Users\TLOU%20LEBELO\Documents\GitHub\Traffic-Light-Optimization\tl_optimization\main_app\media\config\intersection\nodes\inter_31.nod.xml"/>
        <edge-files value="C:\Users\TLOU%20LEBELO\Documents\GitHub\Traffic-Light-Optimization\tl_optimization\main_app\media\config\intersection\edges\inter_31.edg.xml"/>
    </input>

    <output>
        <output-file value="C:\Users\TLOU%20LEBELO\Documents\GitHub\Traffic-Light-Optimization\tl_optimization\main_app\simulation\generic\road_intersection.net.xml"/>
    </output>

    <report>
        <aggregate-warnings value="5"/>
    </report>

</configuration>
-->

<net version="1.6" junctionCornerDetail="5" limitTurnSpeed="5.50" xmlns:xsi="http://www.w3.org/2001/XMLSchema-instance" xsi:noNamespaceSchemaLocation="http://sumo.dlr.de/xsd/net_file.xsd">

    <location netOffset="20.00,20.00" convBoundary="0.00,0.00,40.00,50.00" origBoundary="-20.00,-20.00,20.00,30.00" projParameter="!"/>

    <edge id=":0_0" function="internal">
        <lane id=":0_0_0" index="0" speed="7.33" length="11.73" shape="12.00,30.40 11.65,26.55 10.60,23.80 8.85,22.15 6.40,21.60"/>
    </edge>
    <edge id=":0_1" function="internal">
        <lane id=":0_1_0" index="0" speed="15.00" length="24.25" shape="15.20,30.40 15.70,22.25 16.80,15.74 17.90,10.56 18.40,6.40"/>
    </edge>
    <edge id=":0_2" function="internal">
        <lane id=":0_2_0" index="0" speed="8.67" length="7.89" shape="18.40,30.40 18.95,25.15 20.00,22.76"/>
    </edge>
    <edge id=":0_3" function="internal">
        <lane id=":0_3_0" index="0" speed="3.65" length="2.34" shape="18.40,30.40 19.20,29.20 20.00,28.80"/>
    </edge>
    <edge id=":0_16" function="internal">
        <lane id=":0_16_0" index="0" speed="8.67" length="8.97" shape="20.00,22.76 20.60,21.40 23.35,19.15 27.20,18.40"/>
    </edge>
    <edge id=":0_17" function="internal">
        <lane id=":0_17_0" index="0" speed="3.65" length="2.34" shape="20.00,28.80 20.80,29.20 21.60,30.40"/>
    </edge>
    <edge id=":0_4" function="internal">
        <lane id=":0_4_0" index="0" speed="6.51" length="9.03" shape="27.20,24.80 24.75,25.15 23.00,26.20 21.95,27.95 21.60,30.40"/>
    </edge>
    <edge id=":0_5" function="internal">
        <lane id=":0_5_0" index="0" speed="27.50" length="21.09" shape="27.20,24.80 20.43,24.30 14.93,23.20 10.35,22.10 6.40,21.60"/>
    </edge>
    <edge id=":0_6" function="internal">
        <lane id=":0_6_0" index="0" speed="9.32" length="8.47" shape="27.20,21.60 23.35,20.65 20.60,17.80 20.42,17.29"/>
    </edge>
    <edge id=":0_7" function="internal">
        <lane id=":0_7_0" index="0" speed="3.65" length="2.34" shape="27.20,21.60 26.00,20.80 25.60,20.00"/>
    </edge>
    <edge id=":0_18" function="internal">
        <lane id=":0_18_0" index="0" speed="9.32" length="11.16" shape="20.42,17.29 18.95,13.05 18.40,6.40"/>
    </edge>
    <edge id=":0_19" function="internal">
        <lane id=":0_19_0" index="0" speed="3.65" length="2.34" shape="25.60,20.00 26.00,19.20 27.20,18.40"/>
    </edge>
    <edge id=":0_8" function="internal">
        <lane id=":0_8_0" index="0" speed="6.51" length="9.03" shape="21.60,6.40 21.95,8.85 23.00,10.60 24.75,11.65 27.20,12.00"/>
    </edge>
    <edge id=":0_9" function="internal">
        <lane id=":0_9_0" index="0" speed="17.50" length="24.00" shape="21.60,6.40 21.60,30.40"/>
    </edge>
    <edge id=":0_10" function="internal">
        <lane id=":0_10_0" index="0" speed="10.00" length="11.52" shape="21.60,6.40 20.65,13.05 18.18,17.16"/>
    </edge>
    <edge id=":0_11" function="internal">
        <lane id=":0_11_0" index="0" speed="3.65" length="2.53" shape="21.60,6.40 20.80,7.60 20.00,8.00 19.83,7.91"/>
    </edge>
    <edge id=":0_20" function="internal">
        <lane id=":0_20_0" index="0" speed="10.00" length="13.00" shape="18.18,17.16 17.80,17.80 13.05,20.65 6.40,21.60"/>
    </edge>
    <edge id=":0_21" function="internal">
        <lane id=":0_21_0" index="0" speed="3.65" length="2.15" shape="19.83,7.91 19.20,7.60 18.40,6.40"/>
    </edge>
    <edge id=":0_12" function="internal">
        <lane id=":0_12_0" index="0" speed="9.26" length="19.35" shape="6.40,18.40 11.65,17.65 15.40,15.40 17.65,11.65 18.40,6.40"/>
    </edge>
    <edge id=":0_13" function="internal">
        <lane id=":0_13_0" index="0" speed="35.00" length="21.09" shape="6.40,18.40 10.28,17.90 14.73,16.80 20.21,15.70 27.20,15.20"/>
    </edge>
    <edge id=":0_14" function="internal">
        <lane id=":0_14_0" index="0" speed="9.84" length="13.05" shape="6.40,18.40 13.05,19.15 17.80,21.40 18.47,22.28"/>
    </edge>
    <edge id=":0_15" function="internal">
        <lane id=":0_15_0" index="0" speed="3.65" length="2.54" shape="6.40,18.40 7.60,19.20 8.00,20.00 7.91,20.18"/>
    </edge>
    <edge id=":0_22" function="internal">
        <lane id=":0_22_0" index="0" speed="9.84" length="8.95" shape="18.47,22.28 20.65,25.15 21.60,30.40"/>
    </edge>
    <edge id=":0_23" function="internal">
        <lane id=":0_23_0" index="0" speed="3.65" length="2.14" shape="7.91,20.18 7.60,20.80 6.40,21.60"/>
    </edge>
    <edge id=":A_0" function="internal">
        <lane id=":A_0_0" index="0" speed="3.65" length="4.67" shape="21.60,50.00 20.80,51.20 20.00,51.60 19.20,51.20 18.40,50.00"/>
    </edge>
    <edge id=":B_0" function="internal">
        <lane id=":B_0_0" index="0" speed="3.65" length="4.67" shape="40.00,18.40 41.20,19.20 41.60,20.00 41.20,20.80 40.00,21.60"/>
    </edge>
    <edge id=":C_0" function="internal">
        <lane id=":C_0_0" index="0" speed="3.65" length="4.67" shape="18.40,0.00 19.20,-1.20 20.00,-1.60 20.80,-1.20 21.60,0.00"/>
    </edge>
    <edge id=":D_0" function="internal">
        <lane id=":D_0_0" index="0" speed="3.65" length="4.67" shape="0.00,21.60 -1.20,20.80 -1.60,20.00 -1.20,19.20 0.00,18.40"/>
    </edge>

    <edge id="inA" from="A" to="0" priority="1" length="30.00">
        <lane id="inA_0" index="0" speed="20.00" length="30.00" shape="12.00,50.00 12.00,30.40"/>
        <lane id="inA_1" index="1" speed="20.00" length="30.00" shape="15.20,50.00 15.20,30.40"/>
        <lane id="inA_2" index="2" speed="20.00" length="30.00" shape="18.40,50.00 18.40,30.40">
            <neigh lane="outA_0"/>
        </lane>
    </edge>
    <edge id="inB" from="B" to="0" priority="1" length="20.00">
        <lane id="inB_0" index="0" speed="45.00" length="20.00" shape="40.00,24.80 27.20,24.80"/>
        <lane id="inB_1" index="1" speed="45.00" length="20.00" shape="40.00,21.60 27.20,21.60">
            <neigh lane="outB_2"/>
        </lane>
    </edge>
    <edge id="inC" from="C" to="0" priority="1" length="20.00">
        <lane id="inC_0" index="0" speed="10.00" length="20.00" shape="21.60,0.00 21.60,6.40">
            <neigh lane="outC_0"/>
        </lane>
    </edge>
    <edge id="inD" from="D" to="0" priority="1" length="20.00">
        <lane id="inD_0" index="0" speed="10.00" length="20.00" shape="0.00,18.40 6.40,18.40">
            <neigh lane="outD_0"/>
        </lane>
    </edge>
    <edge id="outA" from="0" to="A" priority="1" length="30.00">
        <lane id="outA_0" index="0" speed="25.00" length="30.00" shape="21.60,30.40 21.60,50.00">
            <neigh lane="inA_2"/>
        </lane>
    </edge>
    <edge id="outB" from="0" to="B" priority="1" length="20.00">
        <lane id="outB_0" index="0" speed="60.00" length="20.00" shape="27.20,12.00 40.00,12.00"/>
        <lane id="outB_1" index="1" speed="60.00" length="20.00" shape="27.20,15.20 40.00,15.20"/>
        <lane id="outB_2" index="2" speed="60.00" length="20.00" shape="27.20,18.40 40.00,18.40">
            <neigh lane="inB_1"/>
        </lane>
    </edge>
    <edge id="outC" from="0" to="C" priority="1" length="20.00">
        <lane id="outC_0" index="0" speed="10.00" length="20.00" shape="18.40,6.40 18.40,0.00">
            <neigh lane="inC_0"/>
        </lane>
    </edge>
    <edge id="outD" from="0" to="D" priority="1" length="20.00">
        <lane id="outD_0" index="0" speed="10.00" length="20.00" shape="6.40,21.60 0.00,21.60">
            <neigh lane="inD_0"/>
        </lane>
    </edge>

    <tlLogic id="0" type="static" programID="0" offset="0">
        <phase duration="21" state="rrrrGGrrrrrrGGgg"/>
        <phase duration="9"  state="rrrryyrrrrrryygg"/>
        <phase duration="6"  state="rrrrrrGGrrrrrrGG"/>
        <phase duration="9"  state="rrrrrryyrrrrrryy"/>
        <phase duration="21" state="GGrrrrrrGGggrrrr"/>
        <phase duration="9"  state="yyrrrrrryyggrrrr"/>
        <phase duration="6"  state="rrGGrrrrrrGGrrrr"/>
        <phase duration="9"  state="rryyrrrrrryyrrrr"/>
    </tlLogic>

    <junction id="0" type="traffic_light" x="20.00" y="20.00" incLanes="inA_0 inA_1 inA_2 inB_0 inB_1 inC_0 inD_0" intLanes=":0_0_0 :0_1_0 :0_16_0 :0_17_0 :0_4_0 :0_5_0 :0_18_0 :0_19_0 :0_8_0 :0_9_0 :0_20_0 :0_21_0 :0_12_0 :0_13_0 :0_22_0 :0_23_0" shape="10.40,30.40 23.20,30.40 23.64,28.18 24.20,27.40 24.98,26.84 25.98,26.51 27.20,26.40 27.20,10.40 24.98,9.96 24.20,9.40 23.64,8.62 23.31,7.62 23.20,6.40 16.80,6.40 16.51,9.58 15.64,12.18 14.20,14.20 12.18,15.64 9.58,16.51 6.40,16.80 6.40,23.20 8.62,24.00 9.40,25.00 9.96,26.40 10.29,28.20">
        <request index="0"  response="0000000000100000" foes="1000010000100000" cont="0"/>
        <request index="1"  response="0111000001100000" foes="0111110001100000" cont="0"/>
        <request index="2"  response="0100001001100000" foes="0100001011100000" cont="1"/>
        <request index="3"  response="0100001000010000" foes="0100001000010000" cont="1"/>
        <request index="4"  response="0000000000000000" foes="0100001000001000" cont="0"/>
        <request index="5"  response="0000010000000100" foes="1100011000000111" cont="0"/>
        <request index="6"  response="0011010000000100" foes="0011111000000110" cont="1"/>
        <request index="7"  response="0000000000000100" foes="0000000000000100" cont="1"/>
        <request index="8"  response="0000000000000000" foes="0000000000000000" cont="0"/>
        <request index="9"  response="0110000001110000" foes="0110000001111100" cont="0"/>
        <request index="10" response="0110000001100011" foes="1110000001100011" cont="1"/>
        <request index="11" response="0001000001000010" foes="0001000001000010" cont="1"/>
        <request index="12" response="0000000000000000" foes="0000100001000010" cont="0"/>
        <request index="13" response="0000010000000000" foes="0000011001000010" cont="0"/>
        <request index="14" response="0000010000110100" foes="0000011000111110" cont="1"/>
        <request index="15" response="0000010000100001" foes="0000010000100001" cont="1"/>
    </junction>
    <junction id="A" type="priority" x="20.00" y="50.00" incLanes="outA_0" intLanes=":A_0_0" shape="20.00,50.00 23.20,50.00 20.00,50.00">
        <request index="0" response="0" foes="0" cont="0"/>
    </junction>
    <junction id="B" type="priority" x="40.00" y="20.00" incLanes="outB_0 outB_1 outB_2" intLanes=":B_0_0" shape="40.00,20.00 40.00,10.40 40.00,20.00">
        <request index="0" response="0" foes="0" cont="0"/>
    </junction>
    <junction id="C" type="priority" x="20.00" y="0.00" incLanes="outC_0" intLanes=":C_0_0" shape="20.00,0.00 16.80,0.00 20.00,0.00">
        <request index="0" response="0" foes="0" cont="0"/>
    </junction>
    <junction id="D" type="priority" x="0.00" y="20.00" incLanes="outD_0" intLanes=":D_0_0" shape="0.00,20.00 0.00,23.20 0.00,20.00">
        <request index="0" response="0" foes="0" cont="0"/>
    </junction>

    <junction id=":0_16_0" type="internal" x="20.00" y="22.76" incLanes=":0_2_0 inC_0" intLanes=":0_5_0 :0_6_0 :0_7_0 :0_8_0 :0_9_0 :0_13_0 :0_14_0"/>
    <junction id=":0_17_0" type="internal" x="20.00" y="28.80" incLanes=":0_3_0 inB_0 inC_0 inD_0" intLanes=":0_4_0 :0_9_0 :0_14_0"/>
    <junction id=":0_18_0" type="internal" x="20.42" y="17.29" incLanes=":0_6_0 inD_0" intLanes=":0_1_0 :0_2_0 :0_9_0 :0_10_0 :0_11_0 :0_12_0 :0_13_0"/>
    <junction id=":0_19_0" type="internal" x="25.60" y="20.00" incLanes=":0_7_0 inA_2 inC_0 inD_0" intLanes=":0_2_0 :0_8_0 :0_13_0"/>
    <junction id=":0_20_0" type="internal" x="18.18" y="17.16" incLanes=":0_10_0 inA_0 inA_1" intLanes=":0_0_0 :0_1_0 :0_5_0 :0_6_0 :0_13_0 :0_14_0 :0_15_0"/>
    <junction id=":0_21_0" type="internal" x="19.83" y="7.91" incLanes=":0_11_0 inA_1 inB_1 inD_0" intLanes=":0_1_0 :0_6_0 :0_12_0"/>
    <junction id=":0_22_0" type="internal" x="18.47" y="22.28" incLanes=":0_14_0 inB_0" intLanes=":0_1_0 :0_2_0 :0_3_0 :0_4_0 :0_5_0 :0_9_0 :0_10_0"/>
    <junction id=":0_23_0" type="internal" x="7.91" y="20.18" incLanes=":0_15_0 inA_0 inB_0 inC_0" intLanes=":0_0_0 :0_5_0 :0_10_0"/>

    <connection from="inA" to="outD" fromLane="0" toLane="0" via=":0_0_0" tl="0" linkIndex="0" dir="r" state="o"/>
    <connection from="inA" to="outC" fromLane="1" toLane="0" via=":0_1_0" tl="0" linkIndex="1" dir="s" state="o"/>
    <connection from="inA" to="outB" fromLane="2" toLane="2" via=":0_2_0" tl="0" linkIndex="2" dir="l" state="o"/>
    <connection from="inA" to="outA" fromLane="2" toLane="0" via=":0_3_0" tl="0" linkIndex="3" dir="t" state="o"/>
    <connection from="inB" to="outA" fromLane="0" toLane="0" via=":0_4_0" tl="0" linkIndex="4" dir="r" state="O"/>
    <connection from="inB" to="outD" fromLane="0" toLane="0" via=":0_5_0" tl="0" linkIndex="5" dir="s" state="O"/>
    <connection from="inB" to="outC" fromLane="1" toLane="0" via=":0_6_0" tl="0" linkIndex="6" dir="l" state="o"/>
    <connection from="inB" to="outB" fromLane="1" toLane="2" via=":0_7_0" tl="0" linkIndex="7" dir="t" state="o"/>
    <connection from="inC" to="outB" fromLane="0" toLane="0" via=":0_8_0" tl="0" linkIndex="8" dir="r" state="O"/>
    <connection from="inC" to="outA" fromLane="0" toLane="0" via=":0_9_0" tl="0" linkIndex="9" dir="s" state="o"/>
    <connection from="inC" to="outD" fromLane="0" toLane="0" via=":0_10_0" tl="0" linkIndex="10" dir="l" state="o"/>
    <connection from="inC" to="outC" fromLane="0" toLane="0" via=":0_11_0" tl="0" linkIndex="11" dir="t" state="o"/>
    <connection from="inD" to="outC" fromLane="0" toLane="0" via=":0_12_0" tl="0" linkIndex="12" dir="r" state="O"/>
    <connection from="inD" to="outB" fromLane="0" toLane="1" via=":0_13_0" tl="0" linkIndex="13" dir="s" state="O"/>
    <connection from="inD" to="outA" fromLane="0" toLane="0" via=":0_14_0" tl="0" linkIndex="14" dir="l" state="o"/>
    <connection from="inD" to="outD" fromLane="0" toLane="0" via=":0_15_0" tl="0" linkIndex="15" dir="t" state="o"/>
    <connection from="outA" to="inA" fromLane="0" toLane="2" via=":A_0_0" dir="t" state="M"/>
    <connection from="outB" to="inB" fromLane="2" toLane="1" via=":B_0_0" dir="t" state="M"/>
    <connection from="outC" to="inC" fromLane="0" toLane="0" via=":C_0_0" dir="t" state="M"/>
    <connection from="outD" to="inD" fromLane="0" toLane="0" via=":D_0_0" dir="t" state="M"/>

    <connection from=":0_0" to="outD" fromLane="0" toLane="0" dir="r" state="M"/>
    <connection from=":0_1" to="outC" fromLane="0" toLane="0" dir="s" state="M"/>
    <connection from=":0_2" to="outB" fromLane="0" toLane="2" via=":0_16_0" dir="l" state="m"/>
    <connection from=":0_16" to="outB" fromLane="0" toLane="2" dir="l" state="M"/>
    <connection from=":0_3" to="outA" fromLane="0" toLane="0" via=":0_17_0" dir="t" state="m"/>
    <connection from=":0_17" to="outA" fromLane="0" toLane="0" dir="t" state="M"/>
    <connection from=":0_4" to="outA" fromLane="0" toLane="0" dir="r" state="M"/>
    <connection from=":0_5" to="outD" fromLane="0" toLane="0" dir="s" state="M"/>
    <connection from=":0_6" to="outC" fromLane="0" toLane="0" via=":0_18_0" dir="l" state="m"/>
    <connection from=":0_18" to="outC" fromLane="0" toLane="0" dir="l" state="M"/>
    <connection from=":0_7" to="outB" fromLane="0" toLane="2" via=":0_19_0" dir="t" state="m"/>
    <connection from=":0_19" to="outB" fromLane="0" toLane="2" dir="t" state="M"/>
    <connection from=":0_8" to="outB" fromLane="0" toLane="0" dir="r" state="M"/>
    <connection from=":0_9" to="outA" fromLane="0" toLane="0" dir="s" state="M"/>
    <connection from=":0_10" to="outD" fromLane="0" toLane="0" via=":0_20_0" dir="l" state="m"/>
    <connection from=":0_20" to="outD" fromLane="0" toLane="0" dir="l" state="M"/>
    <connection from=":0_11" to="outC" fromLane="0" toLane="0" via=":0_21_0" dir="t" state="m"/>
    <connection from=":0_21" to="outC" fromLane="0" toLane="0" dir="t" state="M"/>
    <connection from=":0_12" to="outC" fromLane="0" toLane="0" dir="r" state="M"/>
    <connection from=":0_13" to="outB" fromLane="0" toLane="1" dir="s" state="M"/>
    <connection from=":0_14" to="outA" fromLane="0" toLane="0" via=":0_22_0" dir="l" state="m"/>
    <connection from=":0_22" to="outA" fromLane="0" toLane="0" dir="l" state="M"/>
    <connection from=":0_15" to="outD" fromLane="0" toLane="0" via=":0_23_0" dir="t" state="m"/>
    <connection from=":0_23" to="outD" fromLane="0" toLane="0" dir="t" state="M"/>
    <connection from=":A_0" to="inA" fromLane="0" toLane="2" dir="t" state="M"/>
    <connection from=":B_0" to="inB" fromLane="0" toLane="1" dir="t" state="M"/>
    <connection from=":C_0" to="inC" fromLane="0" toLane="0" dir="t" state="M"/>
    <connection from=":D_0" to="inD" fromLane="0" toLane="0" dir="t" state="M"/>

</net>
