<?xml version="1.0" encoding="UTF-8"?>

<!-- generated on 09/06/20 02:04:23 by Eclipse SUMO netconvert Version 1.6.0
<configuration xmlns:xsi="http://www.w3.org/2001/XMLSchema-instance" xsi:noNamespaceSchemaLocation="http://sumo.dlr.de/xsd/netconvertConfiguration.xsd">

    <input>
        <node-files value="intersection.nod.xml"/>
        <edge-files value="roads.edg.xml"/>
    </input>

    <output>
        <output-file value="road_intersection.net.xml"/>
    </output>

    <processing>
        <opposites.guess.fix-lengths value="true"/>
    </processing>

    <report>
        <aggregate-warnings value="5"/>
    </report>

</configuration>
-->

<net version="1.6" junctionCornerDetail="5" limitTurnSpeed="5.50" xmlns:xsi="http://www.w3.org/2001/XMLSchema-instance" xsi:noNamespaceSchemaLocation="http://sumo.dlr.de/xsd/net_file.xsd">

    <location netOffset="0.00,500.00" convBoundary="0.00,0.00,500.00,1000.00" origBoundary="0.00,-500.00,500.00,500.00" projParameter="!"/>

    <edge id=":0_0" function="internal">
        <lane id=":0_0_0" index="0" speed="65.50" length="14.40" shape="-1.60,507.20 -1.60,492.80">
            <neigh lane=":0_7_0"/>
        </lane>
    </edge>
    <edge id=":0_1" function="internal">
        <lane id=":0_1_0" index="0" speed="8.00" length="5.93" shape="-1.60,507.20 -1.05,503.35 -0.00,501.60"/>
    </edge>
    <edge id=":0_2" function="internal">
        <lane id=":0_2_0" index="0" speed="3.65" length="2.34" shape="-1.60,507.20 -0.80,506.00 0.00,505.60"/>
    </edge>
    <edge id=":0_9" function="internal">
        <lane id=":0_9_0" index="0" speed="8.00" length="8.26" shape="-0.00,501.60 0.60,500.60 3.35,498.95 7.20,498.40"/>
    </edge>
    <edge id=":0_10" function="internal">
        <lane id=":0_10_0" index="0" speed="3.65" length="2.34" shape="0.00,505.60 0.80,506.00 1.60,507.20"/>
    </edge>
    <edge id=":0_3" function="internal">
        <lane id=":0_3_0" index="0" speed="6.51" length="9.03" shape="7.20,501.60 4.75,501.95 3.00,503.00 1.95,504.75 1.60,507.20"/>
    </edge>
    <edge id=":0_4" function="internal">
        <lane id=":0_4_0" index="0" speed="8.00" length="14.19" shape="7.20,501.60 3.35,501.05 0.60,499.40 -1.05,496.65 -1.60,492.80"/>
    </edge>
    <edge id=":0_5" function="internal">
        <lane id=":0_5_0" index="0" speed="3.65" length="2.56" shape="7.20,501.60 6.00,500.80 5.60,500.00 5.70,499.80"/>
    </edge>
    <edge id=":0_11" function="internal">
        <lane id=":0_11_0" index="0" speed="3.65" length="2.12" shape="5.70,499.80 6.00,499.20 7.20,498.40"/>
    </edge>
    <edge id=":0_6" function="internal">
        <lane id=":0_6_0" index="0" speed="6.51" length="9.03" shape="1.60,492.80 1.95,495.25 3.00,497.00 4.75,498.05 7.20,498.40"/>
    </edge>
    <edge id=":0_7" function="internal">
        <lane id=":0_7_0" index="0" speed="31.00" length="14.40" shape="1.60,492.80 1.60,507.20">
            <neigh lane=":0_0_0"/>
        </lane>
    </edge>
    <edge id=":0_8" function="internal">
        <lane id=":0_8_0" index="0" speed="3.65" length="2.34" shape="1.60,492.80 0.80,494.00 0.00,494.40"/>
    </edge>
    <edge id=":0_12" function="internal">
        <lane id=":0_12_0" index="0" speed="3.65" length="2.34" shape="0.00,494.40 -0.80,494.00 -1.60,492.80"/>
    </edge>
    <edge id=":A_0" function="internal">
        <lane id=":A_0_0" index="0" speed="3.65" length="4.67" shape="1.60,1000.00 0.80,1001.20 0.00,1001.60 -0.80,1001.20 -1.60,1000.00"/>
    </edge>
    <edge id=":B_0" function="internal">
        <lane id=":B_0_0" index="0" speed="3.65" length="4.67" shape="500.00,498.40 501.20,499.20 501.60,500.00 501.20,500.80 500.00,501.60"/>
    </edge>
    <edge id=":C_0" function="internal">
        <lane id=":C_0_0" index="0" speed="3.65" length="4.67" shape="-1.60,0.00 -0.80,-1.20 0.00,-1.60 0.80,-1.20 1.60,0.00"/>
    </edge>

    <edge id="inA" from="A" to="0" priority="1" length="23.00">
        <lane id="inA_0" index="0" speed="86.00" length="23.00" shape="-1.60,1000.00 -1.60,507.20">
            <neigh lane="outA_0"/>
        </lane>
    </edge>
    <edge id="inB" from="B" to="0" priority="1" length="22.00">
        <lane id="inB_0" index="0" speed="32.00" length="22.00" shape="500.00,501.60 7.20,501.60">
            <neigh lane="outB_0"/>
        </lane>
    </edge>
    <edge id="inC" from="C" to="0" priority="1" length="71.50">
        <lane id="inC_0" index="0" speed="32.00" length="71.50" shape="1.60,0.00 1.60,492.80">
            <neigh lane="outC_0"/>
        </lane>
    </edge>
    <edge id="outA" from="0" to="A" priority="1" length="23.00">
        <lane id="outA_0" index="0" speed="30.00" length="23.00" shape="1.60,507.20 1.60,1000.00">
            <neigh lane="inA_0"/>
        </lane>
    </edge>
    <edge id="outB" from="0" to="B" priority="1" length="22.00">
        <lane id="outB_0" index="0" speed="7.00" length="22.00" shape="7.20,498.40 500.00,498.40">
            <neigh lane="inB_0"/>
        </lane>
    </edge>
    <edge id="outC" from="0" to="C" priority="1" length="71.50">
        <lane id="outC_0" index="0" speed="45.00" length="71.50" shape="-1.60,492.80 -1.60,0.00">
            <neigh lane="inC_0"/>
        </lane>
    </edge>

    <tlLogic id="0" type="static" programID="0" offset="0">
        <phase duration="29" state="GggrrrGGg"/>
        <phase duration="16" state="yyyrrryyy"/>
        <phase duration="29" state="rrrGGgGrr"/>
        <phase duration="16" state="rrryyyyrr"/>
    </tlLogic>

    <junction id="0" type="traffic_light" x="0.00" y="500.00" incLanes="inA_0 inB_0 inC_0" intLanes=":0_0_0 :0_9_0 :0_10_0 :0_3_0 :0_4_0 :0_11_0 :0_6_0 :0_7_0 :0_12_0" shape="-3.20,507.20 3.20,507.20 3.64,504.98 4.20,504.20 4.98,503.64 5.98,503.31 7.20,503.20 7.20,496.80 4.98,496.36 4.20,495.80 3.64,495.02 3.31,494.02 3.20,492.80 -3.20,492.80">
        <request index="0" response="000000000" foes="100010000" cont="0"/>
        <request index="1" response="011000000" foes="011110000" cont="1"/>
        <request index="2" response="010001000" foes="010001000" cont="1"/>
        <request index="3" response="010000000" foes="010000100" cont="0"/>
        <request index="4" response="010000011" foes="110000011" cont="0"/>
        <request index="5" response="001000010" foes="001000010" cont="1"/>
        <request index="6" response="000000000" foes="000100010" cont="0"/>
        <request index="7" response="000000000" foes="000011110" cont="0"/>
        <request index="8" response="000010001" foes="000010001" cont="1"/>
    </junction>
    <junction id="A" type="priority" x="0.00" y="1000.00" incLanes="outA_0" intLanes=":A_0_0" shape="0.00,1000.00 3.20,1000.00 0.00,1000.00">
        <request index="0" response="0" foes="0" cont="0"/>
    </junction>
    <junction id="B" type="priority" x="500.00" y="500.00" incLanes="outB_0" intLanes=":B_0_0" shape="500.00,500.00 500.00,496.80 500.00,500.00">
        <request index="0" response="0" foes="0" cont="0"/>
    </junction>
    <junction id="C" type="priority" x="0.00" y="0.00" incLanes="outC_0" intLanes=":C_0_0" shape="0.00,0.00 -3.20,0.00 0.00,0.00">
        <request index="0" response="0" foes="0" cont="0"/>
    </junction>

    <junction id=":0_9_0" type="internal" x="-0.00" y="501.60" incLanes=":0_1_0 inC_0" intLanes=":0_4_0 :0_5_0 :0_6_0 :0_7_0"/>
    <junction id=":0_10_0" type="internal" x="0.00" y="505.60" incLanes=":0_2_0 inB_0 inC_0" intLanes=":0_3_0 :0_7_0"/>
    <junction id=":0_11_0" type="internal" x="5.70" y="499.80" incLanes=":0_5_0 inA_0 inC_0" intLanes=":0_1_0 :0_6_0"/>
    <junction id=":0_12_0" type="internal" x="0.00" y="494.40" incLanes=":0_8_0 inA_0 inB_0" intLanes=":0_0_0 :0_4_0"/>

    <connection from="inA" to="outC" fromLane="0" toLane="0" via=":0_0_0" tl="0" linkIndex="0" dir="s" state="O"/>
    <connection from="inA" to="outB" fromLane="0" toLane="0" via=":0_1_0" tl="0" linkIndex="1" dir="l" state="o"/>
    <connection from="inA" to="outA" fromLane="0" toLane="0" via=":0_2_0" tl="0" linkIndex="2" dir="t" state="o"/>
    <connection from="inB" to="outA" fromLane="0" toLane="0" via=":0_3_0" tl="0" linkIndex="3" dir="r" state="o"/>
    <connection from="inB" to="outC" fromLane="0" toLane="0" via=":0_4_0" tl="0" linkIndex="4" dir="l" state="o"/>
    <connection from="inB" to="outB" fromLane="0" toLane="0" via=":0_5_0" tl="0" linkIndex="5" dir="t" state="o"/>
    <connection from="inC" to="outB" fromLane="0" toLane="0" via=":0_6_0" tl="0" linkIndex="6" dir="r" state="O"/>
    <connection from="inC" to="outA" fromLane="0" toLane="0" via=":0_7_0" tl="0" linkIndex="7" dir="s" state="O"/>
    <connection from="inC" to="outC" fromLane="0" toLane="0" via=":0_8_0" tl="0" linkIndex="8" dir="t" state="o"/>
    <connection from="outA" to="inA" fromLane="0" toLane="0" via=":A_0_0" dir="t" state="M"/>
    <connection from="outB" to="inB" fromLane="0" toLane="0" via=":B_0_0" dir="t" state="M"/>
    <connection from="outC" to="inC" fromLane="0" toLane="0" via=":C_0_0" dir="t" state="M"/>

    <connection from=":0_0" to="outC" fromLane="0" toLane="0" dir="s" state="M"/>
    <connection from=":0_1" to="outB" fromLane="0" toLane="0" via=":0_9_0" dir="l" state="m"/>
    <connection from=":0_9" to="outB" fromLane="0" toLane="0" dir="l" state="M"/>
    <connection from=":0_2" to="outA" fromLane="0" toLane="0" via=":0_10_0" dir="t" state="m"/>
    <connection from=":0_10" to="outA" fromLane="0" toLane="0" dir="t" state="M"/>
    <connection from=":0_3" to="outA" fromLane="0" toLane="0" dir="r" state="M"/>
    <connection from=":0_4" to="outC" fromLane="0" toLane="0" dir="l" state="M"/>
    <connection from=":0_5" to="outB" fromLane="0" toLane="0" via=":0_11_0" dir="t" state="m"/>
    <connection from=":0_11" to="outB" fromLane="0" toLane="0" dir="t" state="M"/>
    <connection from=":0_6" to="outB" fromLane="0" toLane="0" dir="r" state="M"/>
    <connection from=":0_7" to="outA" fromLane="0" toLane="0" dir="s" state="M"/>
    <connection from=":0_8" to="outC" fromLane="0" toLane="0" via=":0_12_0" dir="t" state="m"/>
    <connection from=":0_12" to="outC" fromLane="0" toLane="0" dir="t" state="M"/>
    <connection from=":A_0" to="inA" fromLane="0" toLane="0" dir="t" state="M"/>
    <connection from=":B_0" to="inB" fromLane="0" toLane="0" dir="t" state="M"/>
    <connection from=":C_0" to="inC" fromLane="0" toLane="0" dir="t" state="M"/>

</net>
