<configuration>
    <input>
        <net-file value="road_intersection.net.xml"/>
        <route-files value="traffic.rou.xml"/>
    </input>
</configuration>
