<routes xmlns:xsi="http://www.w3.org/2001/XMLSchema-instance" xsi:noNamespaceSchemaLocation="http://sumo.dlr.de/xsd/routes_file.xsd">
  <flow id="A_B" begin="0" end="100" vehsPerHour="1000" from="inA" to="outB"/>
  <flow id="A_C" begin="0" end="100" vehsPerHour="1000" from="inA" to="outC"/>
  <flow id="B_A" begin="0" end="100" vehsPerHour="1000" from="inB" to="outA"/>
  <flow id="B_C" begin="0" end="100" vehsPerHour="1000" from="inB" to="outC"/>
  <flow id="C_A" begin="0" end="100" vehsPerHour="1000" from="inC" to="outA"/>
  <flow id="C_B" begin="0" end="100" vehsPerHour="1000" from="inC" to="outB"/>
</routes>
