<routes xmlns:xsi="http://www.w3.org/2001/XMLSchema-instance" xsi:noNamespaceSchemaLocation="http://sumo.dlr.de/xsd/routes_file.xsd">
  <vType id="mycar" length="5" guiShape="passenger/sedan"/>
  <flow id="A_C_0" begin="0" end="150" probability="0.25" from="inA" to="outC" type="mycar"/>
  <flow id="A_D_0" begin="0" end="150" probability="0.25" from="inA" to="outD" type="mycar"/>
  <flow id="C_A_0" begin="0" end="150" probability="0.25" from="inC" to="outA" type="mycar"/>
  <flow id="C_D_0" begin="0" end="150" probability="0.25" from="inC" to="outD" type="mycar"/>
  <flow id="D_A_0" begin="0" end="150" probability="0.25" from="inD" to="outA" type="mycar"/>
  <flow id="D_C_0" begin="0" end="150" probability="0.25" from="inD" to="outC" type="mycar"/>
</routes>
