<?xml version="1.0" encoding="UTF-8"?>

<!-- generated on 06/11/20 15:30:46 by Eclipse SUMO polyconvert Version 1.3.1
<configuration xmlns:xsi="http://www.w3.org/2001/XMLSchema-instance" xsi:noNamespaceSchemaLocation="http://sumo.dlr.de/xsd/polyconvertConfiguration.xsd">

    <input>
        <net-file value="test.net.xml"/>
        <osm-files value="map.osm"/>
        <type-file value="typemap.xml"/>
    </input>

    <output>
        <output-file value="map.poly.xml"/>
    </output>

    <processing>
        <poi-layer-offset value="5"/>
    </processing>

    <report>
        <xml-validation value="never"/>
    </report>

</configuration>
-->

<additional xmlns:xsi="http://www.w3.org/2001/XMLSchema-instance" xsi:noNamespaceSchemaLocation="http://sumo.dlr.de/xsd/additional_file.xsd">
    <location netOffset="-620209.50,2849292.78" convBoundary="-0.00,-444.85,2100.51,1579.18" origBoundary="28.198591,-25.760596,28.219632,-25.742455" projParameter="+proj=utm +zone=35 +ellps=WGS84 +datum=WGS84 +units=m +no_defs"/>

    <poly id="433820418" type="amenity" color="237,199,199" fill="1" layer="-1.00" shape="607.544744,387.502770 632.740247,375.221360 617.818284,344.908557 624.798749,341.510757 620.935472,333.670703 612.986357,337.542563 610.666147,332.811966 592.501027,341.661871 594.524597,345.763823 588.792503,348.563150 591.327181,353.712696 597.129285,350.890576 601.350278,359.458413 595.208671,362.449783 607.544744,387.502770"/>
    <poly id="433820418#1" type="building" color="255,230,230" fill="1" layer="-1.00" shape="607.544744,387.502770 632.740247,375.221360 617.818284,344.908557 624.798749,341.510757 620.935472,333.670703 612.986357,337.542563 610.666147,332.811966 592.501027,341.661871 594.524597,345.763823 588.792503,348.563150 591.327181,353.712696 597.129285,350.890576 601.350278,359.458413 595.208671,362.449783 607.544744,387.502770"/>
    <poly id="433820419" type="tourism" color="207,245,201" fill="1" layer="-2.00" shape="502.540752,360.970019 631.166230,295.186227 587.382292,195.300104 457.477563,264.805800 502.540752,360.970019"/>
    <poly id="47613393" type="water" color="181,209,209" fill="0" layer="-4.00" shape="2100.508686,-444.854653 2093.730953,-412.038665 2084.335944,-357.466336 2081.684941,-333.937434 2083.806107,-311.737557 2092.335554,-286.406928 2090.336897,-260.668758 2075.997290,-223.385460 2057.691062,-190.928089 2035.203287,-178.945790 2006.127432,-149.390655 1965.939346,-104.458383 1817.203870,221.224265 1743.732466,306.460109 1692.453176,347.605852 1593.723491,377.414238 1537.303854,444.293061 1420.543939,504.239048 1228.044063,518.845870 1160.486233,546.226852 1091.056773,602.523145 928.930849,644.682029 696.387030,752.778522 566.008512,878.613034"/>
    <poly id="682067380" type="building" color="255,230,230" fill="1" layer="-1.00" shape="1147.224381,402.941496 1148.561529,393.436687 1166.258576,395.910457 1165.740780,399.603676 1172.680966,400.570082 1173.198760,396.876863 1178.210542,397.572980 1179.397049,389.143968 1180.612305,389.310035 1181.676249,381.735037 1185.944790,382.327209 1188.977966,390.396264 1186.604554,407.209988 1191.234692,407.854221 1189.897674,417.370110 1179.482315,415.915021 1179.943995,412.665376 1169.317807,411.190061 1169.525251,409.748216 1158.888935,408.261909 1159.397314,404.635237 1147.224381,402.941496"/>
    <poly id="686924312" type="amenity" color="237,199,199" fill="1" layer="-1.00" shape="569.022814,677.049626 602.762852,661.201186 600.103707,655.609720 612.798737,649.656453 609.638296,642.995154 597.003352,648.936792 597.657930,650.315368 593.982306,652.043641 590.167196,643.992686 588.379283,644.828674 587.274678,642.501634 592.488471,640.050420 587.609793,629.771737 554.059484,645.518721 569.022814,677.049626"/>
    <poly id="686924312#1" type="building" color="255,230,230" fill="1" layer="-1.00" shape="569.022814,677.049626 602.762852,661.201186 600.103707,655.609720 612.798737,649.656453 609.638296,642.995154 597.003352,648.936792 597.657930,650.315368 593.982306,652.043641 590.167196,643.992686 588.379283,644.828674 587.274678,642.501634 592.488471,640.050420 587.609793,629.771737 554.059484,645.518721 569.022814,677.049626"/>
    <poly id="688078750" type="building" color="255,230,230" fill="1" layer="-1.00" shape="609.638693,572.770476 630.678732,562.354668 608.946002,518.912038 546.335267,549.910926 556.164359,569.548317 557.552375,568.859978 561.005972,575.773369 565.010246,573.787345 568.310464,580.380918 604.489008,562.472122 609.638693,572.770476"/>
    <poly id="688078751" type="building" color="255,230,230" fill="1" layer="-1.00" shape="618.191268,617.363647 671.210297,592.699227 665.583884,580.732708 657.832902,584.348018 656.318986,581.138608 649.676689,584.234263 651.159805,587.366420 612.534197,605.330930 618.191268,617.363647"/>
    <poly id="688078752" type="building" color="255,230,230" fill="1" layer="-1.00" shape="611.856229,593.706854 660.960171,570.916930 656.796425,562.038445 607.692510,584.828355 611.856229,593.706854"/>
    <poly id="688078755" type="building" color="255,230,230" fill="1" layer="-1.00" shape="599.641125,734.544696 614.092245,727.556358 616.013952,731.482015 617.711705,730.657924 620.890811,737.163981 634.602824,730.525743 632.374638,725.993683 634.991224,724.729212 623.429968,701.075873 608.139988,708.470639 609.632528,711.536255 592.444980,719.845530 599.641125,734.544696"/>
    <poly id="688078756" type="building" color="255,230,230" fill="1" layer="-1.00" shape="643.591304,711.934863 651.441656,708.207894 642.667918,689.923325 634.817474,693.639214 643.591304,711.934863"/>
    <poly id="688078757" type="building" color="255,230,230" fill="1" layer="-1.00" shape="674.441738,739.908924 728.017400,714.641082 722.095961,702.234224 668.520340,727.502044 674.441738,739.908924"/>
    <poly id="688078758" type="building" color="255,230,230" fill="1" layer="-1.00" shape="673.705370,697.758693 680.861071,712.413883 709.593465,698.527170 702.437737,683.871994 673.705370,697.758693"/>
    <poly id="688078759" type="building" color="255,230,230" fill="1" layer="-1.00" shape="652.484203,694.962011 695.360815,675.640436 691.429836,666.992437 683.587829,670.531056 680.793294,664.398097 702.071721,654.810736 697.690505,645.192128 677.201337,654.428898 676.382319,652.619847 667.940935,656.429771 668.749719,658.216763 642.556250,670.019969 647.582290,681.050486 646.393454,681.581943 652.484203,694.962011"/>
    <poly id="688078760" type="building" color="255,230,230" fill="1" layer="-1.00" shape="653.905245,683.617818 663.367098,679.510590 660.785534,673.630438 651.323684,677.737665 653.905245,683.617818"/>
    <poly id="688078761" type="building" color="255,230,230" fill="1" layer="-1.00" shape="670.879740,676.152217 676.454518,673.686593 673.832828,667.806811 668.248022,670.272525 670.879740,676.152217"/>
    <poly id="688078762" type="building" color="255,230,230" fill="1" layer="-1.00" shape="649.953472,657.325217 693.117602,636.549999 689.202032,628.488912 684.817726,630.600289 683.785240,628.483049 675.735657,632.355856 676.236450,633.370312 654.254908,643.949862 653.804876,643.001400 645.046272,647.224037 649.953472,657.325217"/>
    <poly id="688078763" type="building" color="255,230,230" fill="1" layer="-1.00" shape="635.805975,665.695381 646.163249,660.782478 643.719274,655.687494 639.344679,657.765537 634.937466,648.590206 645.514379,643.564531 643.418012,639.186340 630.793520,645.172221 633.043170,649.859155 629.107979,651.722727 635.805975,665.695381"/>
    <poly id="688078764" type="building" color="255,230,230" fill="1" layer="-1.00" shape="644.234807,639.655162 684.056200,620.815669 679.167831,610.581411 639.346564,629.431966 644.234807,639.655162"/>
    <poly id="688078765" type="building" color="255,230,230" fill="1" layer="-1.00" shape="533.742812,460.528230 528.874875,450.315890 589.591895,421.793330 593.989889,431.068446 549.503357,451.966212 553.645523,460.689854 557.371045,458.938981 558.424470,461.155726 559.682892,460.557181 562.372783,466.225908 559.016853,467.807260 561.185098,472.373107 543.366454,480.743480 542.435819,478.791447 533.742812,460.528230"/>
    <poly id="688078767" type="building" color="255,230,230" fill="1" layer="-1.00" shape="563.428372,508.218154 581.016755,499.894165 566.698918,469.830547 561.185098,472.373107 543.366454,480.743480 552.457941,499.800556 558.110881,497.112736 563.428372,508.218154"/>
    <poly id="688078768" type="building" color="255,230,230" fill="1" layer="-1.00" shape="581.016755,499.894165 581.814073,501.526196 621.461470,482.345091 608.612559,456.067314 606.375547,457.151092 595.938183,462.064704 593.596179,457.146003 566.698918,469.830547 581.016755,499.894165"/>
    <poly id="688078769" type="parking" color="184,184,179" fill="1" layer="-1.00" shape="593.989889,431.068446 606.375547,457.151092 595.938183,462.064704 593.596179,457.146003 566.698918,469.830547 561.185098,472.373107 559.016853,467.807260 562.372783,466.225908 559.682892,460.557181 558.424470,461.155726 557.371045,458.938981 553.645523,460.689854 549.503357,451.966212 593.989889,431.068446"/>
    <poly id="688078775" type="building" color="255,230,230" fill="1" layer="-1.00" shape="564.418067,425.479130 585.877234,414.849102 582.117196,407.329312 560.648008,417.959426 564.418067,425.479130"/>
    <poly id="688078776" type="building" color="255,230,230" fill="1" layer="-1.00" shape="572.502035,411.105599 579.692367,407.617297 578.997276,406.194784 581.404083,405.031924 578.818136,399.761004 577.260237,400.517357 576.146230,398.256861 577.813952,397.444122 574.379638,390.441948 561.826583,396.537888 565.046216,403.098968 566.973607,402.162019 568.322957,404.929883 566.315629,405.900792 568.830046,411.028374 571.766016,409.594848 572.502035,411.105599"/>
    <poly id="688082463" type="building" color="255,230,230" fill="1" layer="-1.00" shape="682.088370,532.842335 691.675230,528.157962 710.609426,518.924301 722.113432,513.280875 724.423073,517.945093 728.926785,515.732920 725.461055,508.598150 707.550621,471.821965 697.752974,476.486127 695.222654,479.499904 693.821875,483.179017 693.707373,487.112205 694.885128,490.856354 705.634468,502.510184 698.113323,506.023730 688.198160,503.323118 684.328704,499.204824 683.332607,495.580855 681.187407,492.443677 678.127240,490.167751 674.485426,489.004787 670.664482,489.095098 667.085568,490.423758 664.128509,492.843301 662.131898,496.084799 661.313257,499.802893 661.759011,503.575888 663.425396,507.005432 676.388815,521.651842 675.558398,529.568019 682.088370,532.842335"/>
    <poly id="688082464" type="building" color="255,230,230" fill="1" layer="-1.00" shape="691.675230,528.157962 695.273058,535.479832 704.805414,555.551817 706.941404,559.874255 721.851534,552.648983 724.294612,557.644274 742.510309,548.815892 740.302376,544.305817 724.683166,551.869889 721.034053,544.426655 724.779133,542.620174 714.066858,520.764606 710.609426,518.924301 691.675230,528.157962"/>
    <poly id="688082465" type="building" color="255,230,230" fill="1" layer="-1.00" shape="725.461055,508.598150 742.658479,500.310746 742.086057,499.141878 794.057822,474.109907 797.992633,472.213055 781.186153,437.708608 730.433012,462.164491 729.901219,461.050633 707.550621,471.821965 725.461055,508.598150"/>
    <poly id="688082466" type="building" color="255,230,230" fill="1" layer="-1.00" shape="728.926785,515.732920 733.911432,513.460964 749.176074,545.000004 753.102402,543.269392 755.759162,542.015604 747.218497,523.994801 805.523569,496.080361 802.947140,490.765087 744.652016,518.668349 742.964940,515.172544 800.581048,487.607796 794.057822,474.109907 742.086057,499.141878 742.658479,500.310746 725.461055,508.598150 728.926785,515.732920"/>
    <poly id="688082467" type="building" color="255,230,230" fill="1" layer="-1.00" shape="695.273058,535.479832 681.989032,541.726557 691.521269,561.787476 704.805414,555.551817 695.273058,535.479832"/>
    <poly id="688082468" type="building" color="255,230,230" fill="1" layer="-1.00" shape="770.475227,531.125743 809.593207,512.203668 804.553714,501.904377 765.435759,520.826438 770.475227,531.125743"/>
    <poly id="688082469" type="building" color="255,230,230" fill="1" layer="-1.00" shape="732.068681,543.395318 740.189113,539.599360 732.456244,523.254782 729.879220,524.452454 728.252834,521.011475 724.417388,522.807708 726.074471,526.314865 724.366417,527.105838 732.068681,543.395318"/>
    <poly id="688087125" type="building" color="255,230,230" fill="1" layer="-1.00" shape="701.134272,584.096170 745.176985,563.999471 740.827677,554.579961 696.784990,574.676646 701.134272,584.096170"/>
    <poly id="688087126" type="building" color="255,230,230" fill="1" layer="-1.00" shape="709.029037,599.497786 757.184244,577.181385 754.800319,572.074794 750.605093,574.018318 748.722575,569.992632 704.752690,590.376662 709.029037,599.497786"/>
    <poly id="688087127" type="building" color="255,230,230" fill="1" layer="-1.00" shape="725.291141,633.708233 780.204944,607.840862 771.122884,588.761686 759.686710,594.149773 763.757326,602.707864 720.279739,623.187126 725.291141,633.708233"/>
    <poly id="688087128" type="building" color="255,230,230" fill="1" layer="-1.00" shape="742.209474,648.628558 770.603378,636.140431 771.094755,637.221428 790.946468,628.488781 785.036956,615.195724 764.995397,624.007635 765.947958,626.158829 737.733906,638.567767 742.209474,648.628558"/>
    <poly id="688087129" type="building" color="255,230,230" fill="1" layer="-1.00" shape="759.344032,704.729134 784.248851,693.513461 782.897707,690.557333 801.938365,681.976089 804.917457,688.539318 811.151070,685.724238 808.213212,679.282473 812.758608,677.236040 804.855871,659.885095 800.979867,661.637413 798.533196,656.254492 802.559145,654.445420 796.591051,641.330126 790.067696,644.269692 789.576418,643.199771 784.161952,645.641825 784.643098,646.700762 777.470310,649.923175 776.282795,647.308920 750.009597,659.157380 748.146419,655.053982 741.353347,658.117831 743.451877,662.728595 740.624679,663.995015 744.801378,673.183499 780.155469,657.253374 783.257237,664.070245 784.805634,663.369338 786.115946,666.248304 787.884197,665.456774 788.590467,667.001015 786.862236,667.781103 789.953777,674.575912 760.833273,687.691005 760.167835,686.223924 757.880137,687.252807 756.447036,684.109127 751.052405,686.528831 759.344032,704.729134"/>
    <poly id="688087130" type="building" color="255,230,230" fill="1" layer="-1.00" shape="826.792278,677.262676 882.557954,652.406118 874.192624,633.841036 869.017683,636.148015 870.922336,640.395012 820.341582,662.933399 826.792278,677.262676"/>
    <poly id="688087131" type="building" color="255,230,230" fill="1" layer="-1.00" shape="815.819038,652.130939 871.574695,627.285590 863.219323,608.709335 858.034360,611.016401 859.949037,615.263308 809.358335,637.801749 815.819038,652.130939"/>
    <poly id="688087132" type="building" color="255,230,230" fill="1" layer="-1.00" shape="807.740084,623.195637 854.722086,597.644211 849.183151,587.582113 847.167000,588.686062 845.616566,585.875758 838.949082,589.503411 838.265607,588.258027 833.724098,590.725341 834.397238,591.937590 816.351038,601.750352 815.361592,599.953945 810.750269,602.466195 805.619464,593.153544 787.922676,602.785845 790.462744,607.414715 786.907922,609.186244 799.621057,634.822675 810.830913,628.816344 807.740084,623.195637"/>
    <poly id="688087133" type="building" color="255,230,230" fill="1" layer="-1.00" shape="786.925413,591.364069 840.471899,566.284294 835.490617,555.774027 831.135737,557.807651 829.489058,554.344716 824.475029,556.694511 826.142173,560.201565 781.964532,580.886826 786.925413,591.364069"/>
    <poly id="688087134" type="building" color="255,230,230" fill="1" layer="-1.00" shape="770.383881,571.577790 813.224467,551.669079 810.370117,545.580998 767.519620,565.500867 770.383881,571.577790"/>
    <poly id="688087135" type="building" color="255,230,230" fill="1" layer="-1.00" shape="769.308924,557.143928 813.605748,536.335774 819.302797,548.334819 829.340777,543.624063 817.486299,518.644387 806.629415,523.750306 805.964587,522.349680 796.955458,526.585794 799.082966,531.074443 769.877994,544.788475 768.875489,542.659891 763.601787,545.133880 769.308924,557.143928"/>
    <poly id="688087136" type="building" color="255,230,230" fill="1" layer="-1.00" shape="743.653538,548.783283 746.282028,554.308544 752.094931,551.563795 764.991125,578.583138 744.566034,588.229262 747.306888,593.975025 774.443761,581.155010 755.759162,542.015604 753.102402,543.269392 754.339953,545.872115 749.276069,548.255567 748.447624,546.513065 743.653538,548.783283"/>
    <poly id="688121976" type="building" color="255,230,230" fill="1" layer="-1.00" shape="711.191322,329.168250 723.604641,323.162051 705.195169,285.537543 692.781879,291.543726 711.191322,329.168250"/>
    <poly id="688121979" type="building" color="255,230,230" fill="1" layer="-1.00" shape="665.478432,329.973886 681.707608,322.227071 673.364523,304.946543 657.135465,312.704424 665.478432,329.973886"/>
    <poly id="688121981" type="building" color="255,230,230" fill="1" layer="-1.00" shape="663.593726,377.276492 679.393092,369.688682 670.887378,352.177034 655.088029,359.764835 663.593726,377.276492"/>
    <poly id="688121983" type="building" color="255,230,230" fill="1" layer="-1.00" shape="687.401986,387.714385 741.984426,361.916606 737.167722,351.836784 682.585317,377.634544 687.401986,387.714385"/>
    <poly id="688121985" type="building" color="255,230,230" fill="1" layer="-1.00" shape="705.676465,399.598473 749.880946,378.614128 745.800977,370.122579 701.606549,391.106819 705.676465,399.598473"/>
    <poly id="688121987" type="building" color="255,230,230" fill="1" layer="-1.00" shape="677.443316,409.869726 684.404857,406.593910 674.168105,385.165949 667.246593,388.430317 668.709127,391.507278 632.783420,408.483548 631.249367,405.263244 621.351547,409.939342 628.213449,424.298177 633.606776,421.745612 631.909205,418.194508 672.299411,399.106133 677.443316,409.869726"/>
    <poly id="688121990" type="building" color="255,230,230" fill="1" layer="-1.00" shape="639.860141,420.004842 669.324414,406.144724 673.988101,415.949056 644.523810,429.809184 639.860141,420.004842"/>
    <poly id="688121991" type="building" color="255,230,230" fill="1" layer="-1.00" shape="633.235703,440.412822 645.699615,434.439471 647.499111,438.166865 652.931953,435.547473 650.508984,430.551986 664.420851,423.867566 674.715768,445.073473 678.370960,443.312132 667.994380,421.951903 679.319599,416.509521 682.417417,422.905542 690.457040,419.054968 686.275584,410.431412 691.598685,407.879465 692.784544,410.316519 703.318088,432.384188 707.530259,441.073917 647.217513,469.914547 641.706559,458.500787 640.248451,459.200853 636.649559,451.757139 638.347375,450.944118 633.235703,440.412822"/>
    <poly id="688121992" type="building" color="255,230,230" fill="1" layer="-1.00" shape="707.530259,441.073917 738.391119,426.370139 733.114539,415.364098 723.766718,395.722427 692.784544,410.316519 703.318088,432.384188 707.530259,441.073917"/>
    <poly id="688121993" type="building" color="255,230,230" fill="1" layer="-1.00" shape="738.391119,426.370139 768.054698,412.375055 756.661315,388.432301 747.402630,392.792509 748.814021,395.759165 738.226912,400.740723 739.689262,403.795526 737.511943,404.823399 731.457391,392.107623 723.766718,395.722427 733.114539,415.364098 738.391119,426.370139"/>
    <poly id="688121994" type="building" color="255,230,230" fill="1" layer="-1.00" shape="613.673442,399.564409 638.579713,387.462854 632.740247,375.221360 607.544744,387.502770 613.673442,399.564409"/>
    <poly id="688121997" type="building" color="255,230,230" fill="1" layer="-1.00" shape="720.619109,354.269890 734.360859,347.642328 729.535757,337.739803 715.794116,344.378436 720.619109,354.269890"/>
    <poly id="691853249" type="amenity" color="237,199,199" fill="1" layer="-1.00" shape="827.488609,248.132167 841.151885,241.715656 842.133816,243.789042 853.300160,238.547329 851.663641,235.095380 853.027694,233.986322 853.956912,232.493568 854.342490,230.784262 854.155960,229.035889 853.460341,227.558012 852.193932,226.185049 850.631901,225.390769 848.874141,225.129952 847.131785,225.456045 822.282021,237.103366 823.355941,239.364210 820.469474,240.719807 823.630040,247.392136 826.496549,246.047797 827.488609,248.132167"/>
    <poly id="691853249#1" type="building" color="255,230,230" fill="1" layer="-1.00" shape="827.488609,248.132167 841.151885,241.715656 842.133816,243.789042 853.300160,238.547329 851.663641,235.095380 853.027694,233.986322 853.956912,232.493568 854.342490,230.784262 854.155960,229.035889 853.460341,227.558012 852.193932,226.185049 850.631901,225.390769 848.874141,225.129952 847.131785,225.456045 822.282021,237.103366 823.355941,239.364210 820.469474,240.719807 823.630040,247.392136 826.496549,246.047797 827.488609,248.132167"/>
    <poly id="691853250" type="building" color="255,230,230" fill="1" layer="-1.00" shape="804.700375,258.165571 805.375018,259.543954 815.131232,254.758239 806.965711,238.262592 797.329257,242.980746 800.732354,249.850236 799.494021,250.448621 803.581894,258.707477 804.700375,258.165571"/>
    <poly id="691853251" type="building" color="255,230,230" fill="1" layer="-1.00" shape="821.322344,261.568976 829.043306,257.987062 830.383581,260.854673 858.959925,247.578207 855.062283,239.284395 841.947819,245.385755 840.709870,242.738738 817.537180,253.506730 821.322344,261.568976"/>
    <poly id="691853252" type="amenity" color="237,199,199" fill="1" layer="-1.00" shape="751.621051,292.511989 772.945318,281.428737 764.451788,265.257284 761.177286,266.959787 756.695740,258.427609 747.421243,263.242102 749.024101,266.306695 735.986057,273.093987 744.622304,289.518910 748.885214,287.308928 751.621051,292.511989"/>
    <poly id="691853252#1" type="building" color="255,230,230" fill="1" layer="-1.00" shape="751.621051,292.511989 772.945318,281.428737 764.451788,265.257284 761.177286,266.959787 756.695740,258.427609 747.421243,263.242102 749.024101,266.306695 735.986057,273.093987 744.622304,289.518910 748.885214,287.308928 751.621051,292.511989"/>
    <poly id="691853253" type="building" color="255,230,230" fill="1" layer="-1.00" shape="778.007758,272.321873 787.984647,267.534160 781.308447,253.749678 771.331465,258.526311 778.007758,272.321873"/>
    <poly id="691853254" type="building" color="255,230,230" fill="1" layer="-1.00" shape="791.429756,265.841165 801.577752,261.118335 792.411880,241.630113 782.263896,246.352937 791.429756,265.841165"/>
    <poly id="691853255" type="building" color="255,230,230" fill="1" layer="-1.00" shape="779.675392,285.753434 790.720930,280.457501 787.602622,274.017385 776.547059,279.313407 779.675392,285.753434"/>
    <poly id="697622380" type="building" color="255,230,230" fill="1" layer="-1.00" shape="630.678732,562.354668 656.292177,549.670660 632.834138,502.943052 607.271017,515.637636 608.946002,518.912038 630.678732,562.354668"/>
    <poly id="714978811" type="landuse" color="194,194,130" fill="1" layer="-3.00" shape="614.093611,407.125785 649.568291,390.186918 617.841985,324.450135 584.854281,340.203178 583.574254,343.925482 614.093611,407.125785"/>
    <poly id="730989418" type="building" color="255,230,230" fill="1" layer="-1.00" shape="1158.362347,337.776070 1178.799558,334.985496 1176.757725,320.172842 1156.320435,322.952338 1158.362347,337.776070"/>
    <poly id="753806521" type="building" color="255,230,230" fill="1" layer="-1.00" shape="832.770863,733.166207 841.827457,731.909208 841.087216,726.654667 839.664646,726.855988 837.262465,709.897770 837.144530,709.068116 829.520651,710.134776 832.770863,733.166207"/>
    <poly id="753806522" type="building" color="255,230,230" fill="1" layer="-1.00" shape="857.435044,735.111427 841.680662,715.871845 848.133007,710.651155 851.632874,714.927858 882.311081,690.079410 890.710722,700.336831 886.558646,703.708865 889.835325,707.710691 884.597761,711.945551 883.441334,710.538353 880.254985,713.115114 879.686903,712.422498 874.449436,716.668430 875.048014,717.405072 868.416551,722.782486 867.767315,721.990925 861.942314,726.707441 864.275632,729.565958 857.435044,735.111427"/>
    <poly id="753806529" type="building" color="255,230,230" fill="1" layer="-1.00" shape="837.801354,708.497205 850.749442,704.989288 861.804930,698.552348 858.900995,693.627757 848.264548,699.817177 836.307025,703.050190 837.801354,708.497205"/>
    <poly id="753809362" type="building" color="255,230,230" fill="1" layer="-1.00" shape="1123.582442,349.459718 1149.074539,345.504083 1147.859766,337.739548 1143.562608,338.399269 1141.623517,326.033568 1116.842566,329.871901 1118.078702,337.780236 1132.202132,335.601489 1132.905374,340.092084 1122.378018,341.728316 1123.582442,349.459718"/>
    <poly id="753809363" type="building" color="255,230,230" fill="1" layer="-1.00" shape="1184.715060,364.195234 1135.691792,371.556923 1133.166415,366.352003 1156.125433,362.906966 1155.281831,357.332167 1130.589873,361.036788 1127.594178,354.861453 1154.289372,350.839386 1153.274822,344.125279 1154.236376,343.972459 1153.873604,341.605424 1158.721800,340.874183 1159.084980,343.285521 1160.317140,343.108064 1163.157324,361.845540 1170.038968,360.807642 1168.127602,348.186931 1169.570086,347.974314 1169.207311,345.607278 1173.083821,345.017870 1173.436771,347.407148 1174.979453,347.182534 1176.890521,359.770017 1183.892421,358.719932 1184.715060,364.195234"/>
    <poly id="753809366" type="building" color="255,230,230" fill="1" layer="-1.00" shape="1138.744218,377.355135 1141.820468,383.562958 1186.635762,376.738322 1185.633054,370.223485 1138.744218,377.355135"/>
    <poly id="754472802" type="building" color="255,230,230" fill="1" layer="-1.00" shape="1056.071890,556.932052 1069.254051,550.530806 1101.849116,547.739627 1100.895157,536.694063 1086.782729,537.909011 1090.206494,536.072141 1087.737253,531.520210 1083.644824,533.728735 1078.888498,532.454261 1077.549650,537.406645 1081.219882,538.380941 1070.204620,539.334857 1051.819433,548.253868 1056.071890,556.932052"/>
    <poly id="754472803" type="building" color="255,230,230" fill="1" layer="-1.00" shape="1098.429061,532.485475 1110.838511,520.586269 1156.116930,498.593824 1151.230665,488.625539 1137.699076,495.196225 1139.885161,492.938717 1139.857853,491.055968 1136.706486,487.595799 1134.530330,489.842139 1126.907368,493.179646 1125.931159,495.016220 1126.976889,497.476678 1133.762167,496.860593 1106.571294,510.302149 1091.208617,525.030787 1098.429061,532.485475"/>
    <poly id="754472804" type="building" color="255,230,230" fill="1" layer="-1.00" shape="1035.648983,515.372118 1079.598549,492.849377 1074.972545,483.908791 1048.355289,497.555418 1051.733521,494.035353 1049.798863,490.896301 1044.222726,494.292525 1040.120936,494.385518 1040.248906,499.590284 1044.581288,499.484100 1031.012972,506.431610 1035.648983,515.372118"/>
    <poly id="754472805" type="building" color="255,230,230" fill="1" layer="-1.00" shape="1015.311878,472.216360 1059.261328,449.693681 1054.635453,440.764164 1028.018166,454.399678 1031.396493,450.890693 1029.461744,447.740562 1023.885621,451.136779 1019.783946,451.240842 1019.911909,456.445607 1024.244277,456.339430 1010.675996,463.286921 1015.311878,472.216360"/>
    <poly id="754472806" type="building" color="255,230,230" fill="1" layer="-1.00" shape="1069.869039,474.307996 1130.664693,443.522582 1125.986689,434.383113 1082.633914,456.324573 1087.499869,450.963234 1086.050002,448.185264 1077.503809,452.572399 1074.634913,452.565484 1074.636977,458.258769 1078.859930,458.253266 1065.201200,465.179491 1069.869039,474.307996"/>
    <poly id="754472807" type="building" color="255,230,230" fill="1" layer="-1.00" shape="1067.377668,429.061320 1111.785993,408.472628 1108.573266,401.601463 1064.164960,422.190146 1067.377668,429.061320"/>
    <poly id="754472808" type="building" color="255,230,230" fill="1" layer="-1.00" shape="1069.723173,433.248867 1074.715752,443.880791 1118.853613,423.327787 1113.851279,412.729197 1069.723173,433.248867"/>
    <poly id="754472809" type="building" color="255,230,230" fill="1" layer="-1.00" shape="1113.851279,412.729197 1111.785993,408.472628 1121.423486,403.865002 1123.478744,408.121661 1113.851279,412.729197"/>
    <poly id="754472810" type="building" color="255,230,230" fill="1" layer="-1.00" shape="995.840669,442.532696 1046.890207,416.544496 1043.662834,410.260504 1042.089980,407.195669 1006.076746,425.525105 1006.842703,427.013406 991.796397,434.672245 995.840669,442.532696"/>
    <poly id="754472811" type="building" color="255,230,230" fill="1" layer="-1.00" shape="996.096372,414.617659 1003.706444,410.970204 999.095400,401.464557 994.421462,403.700540 996.721967,408.453410 993.785735,409.853805 996.096372,414.617659"/>
    <poly id="754472812" type="building" color="255,230,230" fill="1" layer="-1.00" shape="975.428521,405.392092 970.266440,394.861376 979.164387,390.548620 994.074187,383.323026 995.617749,386.476747 989.635776,389.367153 984.942187,391.647618 988.560716,399.024608 987.422271,399.577789 975.428521,405.392092"/>
    <poly id="754472813" type="building" color="255,230,230" fill="1" layer="-1.00" shape="987.422271,399.577789 989.998456,404.859804 994.382641,402.748320 993.084163,400.068640 994.372449,399.447626 993.769309,398.212591 997.024976,396.643120 994.223866,390.897957 991.107910,392.388611 989.635776,389.367153 984.942187,391.647618 988.560716,399.024608 987.422271,399.577789"/>
    <poly id="754472814" type="building" color="255,230,230" fill="1" layer="-1.00" shape="970.266440,394.861376 950.681405,354.921889 959.579228,350.598070 979.164387,390.548620 970.266440,394.861376"/>