<?xml version="1.0" encoding="UTF-8"?>

<!-- generated on 06/11/20 15:30:29 by Eclipse SUMO netconvert Version 1.3.1
<configuration xmlns:xsi="http://www.w3.org/2001/XMLSchema-instance" xsi:noNamespaceSchemaLocation="http://sumo.dlr.de/xsd/netconvertConfiguration.xsd">

    <input>
        <type-files value="osmNetconvert.typ.xml"/>
        <osm-files value="map.osm"/>
    </input>

    <output>
        <output-file value="test.net.xml"/>
    </output>

    <projection>
        <proj.utm value="true"/>
    </projection>

    <report>
        <xml-validation value="never"/>
    </report>

</configuration>
-->

<net version="1.3" junctionCornerDetail="5" limitTurnSpeed="5.50" xmlns:xsi="http://www.w3.org/2001/XMLSchema-instance" xsi:noNamespaceSchemaLocation="http://sumo.dlr.de/xsd/net_file.xsd">

    <location netOffset="-620209.50,2849292.78" convBoundary="0.00,0.00,1820.71,855.47" origBoundary="28.198591,-25.760596,28.219632,-25.748775" projParameter="+proj=utm +zone=35 +ellps=WGS84 +datum=WGS84 +units=m +no_defs"/>

    <type id="highway.bridleway" priority="1" numLanes="1" speed="2.78" allow="pedestrian" oneway="1" width="2.00"/>
    <type id="highway.bus_guideway" priority="1" numLanes="1" speed="27.78" allow="bus" oneway="1"/>
    <type id="highway.cycleway" priority="1" numLanes="1" speed="8.33" allow="bicycle" oneway="0" width="1.00"/>
    <type id="highway.footway" priority="1" numLanes="1" speed="2.78" allow="pedestrian" oneway="1" width="2.00"/>
    <type id="highway.ford" priority="1" numLanes="1" speed="2.78" allow="army" oneway="0"/>
    <type id="highway.living_street" priority="2" numLanes="1" speed="2.78" disallow="tram rail_urban rail rail_electric rail_fast ship" oneway="0"/>
    <type id="highway.motorway" priority="14" numLanes="2" speed="39.44" allow="private emergency authority army vip passenger hov taxi bus coach delivery truck trailer motorcycle evehicle custom1 custom2" oneway="1"/>
    <type id="highway.motorway_link" priority="9" numLanes="1" speed="22.22" allow="private emergency authority army vip passenger hov taxi bus coach delivery truck trailer motorcycle evehicle custom1 custom2" oneway="1"/>
    <type id="highway.path" priority="1" numLanes="1" speed="2.78" allow="pedestrian bicycle" oneway="1" width="2.00"/>
    <type id="highway.pedestrian" priority="1" numLanes="1" speed="2.78" allow="pedestrian" oneway="1" width="2.00"/>
    <type id="highway.primary" priority="12" numLanes="2" speed="27.78" disallow="tram rail_urban rail rail_electric rail_fast ship" oneway="0"/>
    <type id="highway.primary_link" priority="7" numLanes="1" speed="22.22" disallow="tram rail_urban rail rail_electric rail_fast ship" oneway="0"/>
    <type id="highway.raceway" priority="15" numLanes="2" speed="83.33" allow="vip" oneway="0"/>
    <type id="highway.residential" priority="3" numLanes="1" speed="13.89" disallow="tram rail_urban rail rail_electric rail_fast ship" oneway="0"/>
    <type id="highway.secondary" priority="11" numLanes="1" speed="27.78" disallow="tram rail_urban rail rail_electric rail_fast ship" oneway="0"/>
    <type id="highway.secondary_link" priority="6" numLanes="1" speed="22.22" disallow="tram rail_urban rail rail_electric rail_fast ship" oneway="0"/>
    <type id="highway.service" priority="1" numLanes="1" speed="5.56" allow="pedestrian delivery bicycle" oneway="0"/>
    <type id="highway.stairs" priority="1" numLanes="1" speed="1.39" allow="pedestrian" oneway="1" width="2.00"/>
    <type id="highway.step" priority="1" numLanes="1" speed="1.39" allow="pedestrian" oneway="1" width="2.00"/>
    <type id="highway.steps" priority="1" numLanes="1" speed="1.39" allow="pedestrian" oneway="1" width="2.00"/>
    <type id="highway.tertiary" priority="10" numLanes="1" speed="22.22" disallow="tram rail_urban rail rail_electric rail_fast ship" oneway="0"/>
    <type id="highway.tertiary_link" priority="5" numLanes="1" speed="22.22" disallow="tram rail_urban rail rail_electric rail_fast ship" oneway="0"/>
    <type id="highway.track" priority="1" numLanes="1" speed="5.56" allow="pedestrian motorcycle moped bicycle" oneway="0"/>
    <type id="highway.trunk" priority="13" numLanes="2" speed="27.78" disallow="pedestrian bicycle tram rail_urban rail rail_electric rail_fast ship" oneway="0"/>
    <type id="highway.trunk_link" priority="8" numLanes="1" speed="22.22" disallow="pedestrian bicycle tram rail_urban rail rail_electric rail_fast ship" oneway="0"/>
    <type id="highway.unclassified" priority="4" numLanes="1" speed="13.89" disallow="tram rail_urban rail rail_electric rail_fast ship" oneway="0"/>
    <type id="highway.unsurfaced" priority="1" numLanes="1" speed="8.33" disallow="tram rail_urban rail rail_electric rail_fast ship" oneway="0"/>
    <type id="railway.highspeed" priority="21" numLanes="1" speed="69.44" allow="rail_fast" oneway="1"/>
    <type id="railway.light_rail" priority="19" numLanes="1" speed="27.78" allow="rail_urban" oneway="1"/>
    <type id="railway.preserved" priority="16" numLanes="1" speed="27.78" allow="rail" oneway="1"/>
    <type id="railway.rail" priority="20" numLanes="1" speed="44.44" allow="rail" oneway="1"/>
    <type id="railway.subway" priority="18" numLanes="1" speed="27.78" allow="rail_urban" oneway="1"/>
    <type id="railway.tram" priority="17" numLanes="1" speed="13.89" allow="tram" oneway="1"/>

    <edge id=":2358756755_0" function="internal">
        <lane id=":2358756755_0_0" index="0" disallow="tram rail_urban rail rail_electric rail_fast ship" speed="13.89" length="0.20" shape="1044.61,625.40 1044.59,625.30"/>
        <lane id=":2358756755_0_1" index="1" disallow="tram rail_urban rail rail_electric rail_fast ship" speed="13.89" length="0.20" shape="1047.79,625.02 1047.74,624.72"/>
    </edge>
    <edge id=":2358756755_2" function="internal">
        <lane id=":2358756755_2_0" index="0" disallow="tram rail_urban rail rail_electric rail_fast ship" speed="13.89" length="0.61" shape="1054.04,623.57 1054.14,624.27"/>
        <lane id=":2358756755_2_1" index="1" disallow="tram rail_urban rail rail_electric rail_fast ship" speed="13.89" length="0.61" shape="1050.89,624.14 1050.96,624.65"/>
    </edge>
    <edge id=":2358756758_0" function="internal">
        <lane id=":2358756758_0_0" index="0" disallow="tram rail_urban rail rail_electric rail_fast ship" speed="13.89" length="0.30" shape="1041.67,609.38 1041.66,609.33 1041.65,609.30 1041.64,609.27 1041.63,609.23"/>
        <lane id=":2358756758_0_1" index="1" disallow="tram rail_urban rail rail_electric rail_fast ship" speed="13.89" length="0.30" shape="1044.81,608.80 1044.79,608.67 1044.77,608.58 1044.75,608.49 1044.71,608.36"/>
    </edge>
    <edge id=":2358756758_2" function="internal">
        <lane id=":2358756758_2_0" index="0" disallow="tram rail_urban rail rail_electric rail_fast ship" speed="13.89" length="0.90" shape="1050.87,606.62 1050.95,606.92 1051.01,607.12 1051.05,607.33 1051.11,607.64"/>
        <lane id=":2358756758_2_1" index="1" disallow="tram rail_urban rail rail_electric rail_fast ship" speed="13.89" length="0.90" shape="1047.79,607.49 1047.85,607.70 1047.89,607.85 1047.92,608.00 1047.96,608.22"/>
    </edge>
    <edge id=":2358756766_0" function="internal">
        <lane id=":2358756766_0_0" index="0" disallow="tram rail_urban rail rail_electric rail_fast ship" speed="3.65" length="4.67" shape="1191.86,525.56 1191.46,526.94 1190.82,527.57 1189.94,527.43 1188.81,526.53"/>
    </edge>
    <edge id=":25326717_0" function="internal">
        <lane id=":25326717_0_0" index="0" disallow="tram rail_urban rail rail_electric rail_fast ship" speed="13.89" length="0.38" shape="494.53,566.59 494.13,566.78"/>
        <lane id=":25326717_0_1" index="1" disallow="tram rail_urban rail rail_electric rail_fast ship" speed="13.89" length="0.38" shape="493.09,563.73 492.80,563.87"/>
    </edge>
    <edge id=":25326717_2" function="internal">
        <lane id=":25326717_2_0" index="0" disallow="tram rail_urban rail rail_electric rail_fast ship" speed="13.89" length="0.14" shape="490.15,558.05 490.19,558.03"/>
        <lane id=":25326717_2_1" index="1" disallow="tram rail_urban rail rail_electric rail_fast ship" speed="13.89" length="0.14" shape="491.48,560.96 491.64,560.88"/>
    </edge>
    <edge id=":25326718_0" function="internal">
        <lane id=":25326718_0_0" index="0" disallow="tram rail_urban rail rail_electric rail_fast ship" speed="6.45" length="9.03" shape="637.01,500.66 635.64,498.60 633.93,497.48 631.91,497.33 629.55,498.12"/>
    </edge>
    <edge id=":25326718_1" function="internal">
        <lane id=":25326718_1_0" index="0" disallow="tram rail_urban rail rail_electric rail_fast ship" speed="27.78" length="20.89" shape="637.01,500.66 628.02,481.81"/>
        <lane id=":25326718_1_1" index="1" disallow="tram rail_urban rail rail_electric rail_fast ship" speed="27.78" length="20.89" shape="639.90,499.29 630.91,480.43"/>
        <lane id=":25326718_1_2" index="2" disallow="tram rail_urban rail rail_electric rail_fast ship" speed="27.78" length="20.89" shape="642.79,497.91 633.80,479.05"/>
    </edge>
    <edge id=":25326718_4" function="internal">
        <lane id=":25326718_4_0" index="0" disallow="tram rail_urban rail rail_electric rail_fast ship" speed="8.11" length="14.67" shape="642.79,497.91 640.83,492.98 640.16,489.12 640.78,486.32 642.69,484.59"/>
    </edge>
    <edge id=":25326718_5" function="internal">
        <lane id=":25326718_5_0" index="0" disallow="tram rail_urban rail rail_electric rail_fast ship" speed="13.89" length="17.70" shape="645.41,490.38 629.55,498.12"/>
        <lane id=":25326718_5_1" index="1" disallow="tram rail_urban rail rail_electric rail_fast ship" speed="13.89" length="17.70" shape="644.05,487.48 628.11,495.27"/>
    </edge>
    <edge id=":25326718_7" function="internal">
        <lane id=":25326718_7_0" index="0" disallow="tram rail_urban rail rail_electric rail_fast ship" speed="8.13" length="3.60" shape="644.05,487.48 641.50,487.85 640.59,487.39"/>
    </edge>
    <edge id=":25326718_8" function="internal">
        <lane id=":25326718_8_0" index="0" disallow="tram rail_urban rail rail_electric rail_fast ship" speed="3.65" length="2.34" shape="644.05,487.48 642.63,487.27 641.92,486.71"/>
    </edge>
    <edge id=":25326718_13" function="internal">
        <lane id=":25326718_13_0" index="0" disallow="tram rail_urban rail rail_electric rail_fast ship" speed="8.13" length="11.00" shape="640.59,487.39 638.94,486.57 636.37,483.64 633.80,479.05"/>
    </edge>
    <edge id=":25326718_14" function="internal">
        <lane id=":25326718_14_0" index="0" disallow="tram rail_urban rail rail_electric rail_fast ship" speed="3.65" length="2.34" shape="641.92,486.71 641.95,485.82 642.69,484.59"/>
    </edge>
    <edge id=":25326718_9" function="internal">
        <lane id=":25326718_9_0" index="0" disallow="tram rail_urban rail rail_electric rail_fast ship" speed="6.67" length="9.35" shape="625.21,489.56 627.35,488.08 628.53,486.29 628.76,484.20 628.02,481.81"/>
    </edge>
    <edge id=":25326718_10" function="internal">
        <lane id=":25326718_10_0" index="0" disallow="tram rail_urban rail rail_electric rail_fast ship" speed="13.89" length="17.89" shape="625.21,489.56 641.33,481.69"/>
        <lane id=":25326718_10_1" index="1" disallow="tram rail_urban rail rail_electric rail_fast ship" speed="13.89" length="17.89" shape="626.66,492.41 642.69,484.59"/>
    </edge>
    <edge id=":25326718_12" function="internal">
        <lane id=":25326718_12_0" index="0" disallow="tram rail_urban rail rail_electric rail_fast ship" speed="3.65" length="2.34" shape="626.66,492.41 628.09,492.59 628.81,493.12"/>
    </edge>
    <edge id=":25326718_15" function="internal">
        <lane id=":25326718_15_0" index="0" disallow="tram rail_urban rail rail_electric rail_fast ship" speed="3.65" length="2.34" shape="628.81,493.12 628.82,494.01 628.11,495.27"/>
    </edge>
    <edge id=":25326721_0" function="internal">
        <lane id=":25326721_0_0" index="0" disallow="tram rail_urban rail rail_electric rail_fast ship" speed="6.55" length="9.13" shape="787.43,429.88 786.06,427.82 784.34,426.70 782.27,426.51 779.86,427.25"/>
    </edge>
    <edge id=":25326721_1" function="internal">
        <lane id=":25326721_1_0" index="0" disallow="tram rail_urban rail rail_electric rail_fast ship" speed="13.89" length="20.82" shape="787.43,429.88 778.41,411.12"/>
    </edge>
    <edge id=":25326721_2" function="internal">
        <lane id=":25326721_2_0" index="0" disallow="tram rail_urban rail rail_electric rail_fast ship" speed="8.68" length="16.83" shape="787.43,429.88 785.68,424.91 785.56,420.81 787.07,417.60 790.21,415.27"/>
    </edge>
    <edge id=":25326721_3" function="internal">
        <lane id=":25326721_3_0" index="0" disallow="tram rail_urban rail rail_electric rail_fast ship" speed="3.65" length="4.67" shape="787.43,429.88 787.64,428.46 788.19,427.75 789.08,427.77 790.32,428.51"/>
    </edge>
    <edge id=":25326721_4" function="internal">
        <lane id=":25326721_4_0" index="0" disallow="tram rail_urban rail rail_electric rail_fast ship" speed="6.51" length="9.03" shape="792.97,421.04 790.91,422.42 789.78,424.12 789.59,426.15 790.32,428.51"/>
    </edge>
    <edge id=":25326721_5" function="internal">
        <lane id=":25326721_5_0" index="0" disallow="tram rail_urban rail rail_electric rail_fast ship" speed="13.89" length="14.49" shape="792.97,421.04 779.86,427.25"/>
        <lane id=":25326721_5_1" index="1" disallow="tram rail_urban rail rail_electric rail_fast ship" speed="13.89" length="14.49" shape="791.59,418.16 778.50,424.36"/>
    </edge>
    <edge id=":25326721_7" function="internal">
        <lane id=":25326721_7_0" index="0" disallow="tram rail_urban rail rail_electric rail_fast ship" speed="8.71" length="5.28" shape="791.59,418.16 787.80,419.13 786.48,418.81"/>
    </edge>
    <edge id=":25326721_8" function="internal">
        <lane id=":25326721_8_0" index="0" disallow="tram rail_urban rail rail_electric rail_fast ship" speed="3.65" length="2.34" shape="791.59,418.16 790.16,417.95 789.46,417.40"/>
    </edge>
    <edge id=":25326721_18" function="internal">
        <lane id=":25326721_18_0" index="0" disallow="tram rail_urban rail rail_electric rail_fast ship" speed="8.71" length="11.61" shape="786.48,418.81 784.34,418.29 781.21,415.62 778.41,411.12"/>
    </edge>
    <edge id=":25326721_19" function="internal">
        <lane id=":25326721_19_0" index="0" disallow="tram rail_urban rail rail_electric rail_fast ship" speed="3.65" length="2.34" shape="789.46,417.40 789.47,416.51 790.21,415.27"/>
    </edge>
    <edge id=":25326721_9" function="internal">
        <lane id=":25326721_9_0" index="0" disallow="tram rail_urban rail rail_electric rail_fast ship" speed="6.55" length="9.11" shape="781.29,409.72 782.69,411.79 784.41,412.93 786.46,413.12 788.83,412.38"/>
    </edge>
    <edge id=":25326721_10" function="internal">
        <lane id=":25326721_10_0" index="0" disallow="tram rail_urban rail rail_electric rail_fast ship" speed="13.89" length="20.85" shape="781.29,409.72 790.32,428.51"/>
    </edge>
    <edge id=":25326721_11" function="internal">
        <lane id=":25326721_11_0" index="0" disallow="tram rail_urban rail rail_electric rail_fast ship" speed="8.65" length="16.93" shape="781.29,409.72 783.09,414.70 783.23,418.80 781.70,422.02 778.50,424.36"/>
    </edge>
    <edge id=":25326721_12" function="internal">
        <lane id=":25326721_12_0" index="0" disallow="tram rail_urban rail rail_electric rail_fast ship" speed="3.65" length="4.67" shape="781.29,409.72 781.09,411.15 780.55,411.86 779.65,411.85 778.41,411.12"/>
    </edge>
    <edge id=":25326721_13" function="internal">
        <lane id=":25326721_13_0" index="0" disallow="tram rail_urban rail rail_electric rail_fast ship" speed="6.48" length="9.03" shape="775.78,418.56 777.86,417.20 778.98,415.51 779.17,413.48 778.41,411.12"/>
    </edge>
    <edge id=":25326721_14" function="internal">
        <lane id=":25326721_14_0" index="0" disallow="tram rail_urban rail rail_electric rail_fast ship" speed="13.89" length="14.45" shape="775.78,418.56 788.83,412.38"/>
        <lane id=":25326721_14_1" index="1" disallow="tram rail_urban rail rail_electric rail_fast ship" speed="13.89" length="14.45" shape="777.14,421.46 790.21,415.27"/>
    </edge>
    <edge id=":25326721_16" function="internal">
        <lane id=":25326721_16_0" index="0" disallow="tram rail_urban rail rail_electric rail_fast ship" speed="8.70" length="5.29" shape="777.14,421.46 780.98,420.48 782.27,420.80"/>
    </edge>
    <edge id=":25326721_17" function="internal">
        <lane id=":25326721_17_0" index="0" disallow="tram rail_urban rail rail_electric rail_fast ship" speed="3.65" length="2.34" shape="777.14,421.46 778.57,421.67 779.27,422.23"/>
    </edge>
    <edge id=":25326721_20" function="internal">
        <lane id=":25326721_20_0" index="0" disallow="tram rail_urban rail rail_electric rail_fast ship" speed="8.70" length="11.63" shape="782.27,420.80 784.46,421.33 787.57,424.01 790.32,428.51"/>
    </edge>
    <edge id=":25326721_21" function="internal">
        <lane id=":25326721_21_0" index="0" disallow="tram rail_urban rail rail_electric rail_fast ship" speed="3.65" length="2.34" shape="779.27,422.23 779.25,423.12 778.50,424.36"/>
    </edge>
    <edge id=":25326722_0" function="internal">
        <lane id=":25326722_0_0" index="0" disallow="tram rail_urban rail rail_electric rail_fast ship" speed="6.46" length="9.03" shape="933.46,360.15 932.12,358.05 930.44,356.91 928.42,356.70 926.05,357.45"/>
    </edge>
    <edge id=":25326722_1" function="internal">
        <lane id=":25326722_1_0" index="0" disallow="tram rail_urban rail rail_electric rail_fast ship" speed="13.89" length="20.90" shape="933.46,360.15 924.56,341.29"/>
        <lane id=":25326722_1_1" index="1" disallow="tram rail_urban rail rail_electric rail_fast ship" speed="13.89" length="20.90" shape="936.37,358.82 927.43,339.88"/>
    </edge>
    <edge id=":25326722_3" function="internal">
        <lane id=":25326722_3_0" index="0" disallow="tram rail_urban rail rail_electric rail_fast ship" speed="9.44" length="19.59" shape="936.37,358.82 934.86,353.68 935.31,349.24 937.73,345.51 942.11,342.49"/>
    </edge>
    <edge id=":25326722_4" function="internal">
        <lane id=":25326722_4_0" index="0" disallow="tram rail_urban rail rail_electric rail_fast ship" speed="3.65" length="4.67" shape="936.37,358.82 936.61,357.40 937.17,356.71 938.06,356.74 939.29,357.50"/>
    </edge>
    <edge id=":25326722_5" function="internal">
        <lane id=":25326722_5_0" index="0" disallow="tram rail_urban rail rail_electric rail_fast ship" speed="6.75" length="9.53" shape="944.96,348.22 942.84,349.69 941.67,351.50 941.46,353.67 942.20,356.18"/>
    </edge>
    <edge id=":25326722_6" function="internal">
        <lane id=":25326722_6_0" index="0" disallow="tram rail_urban rail rail_electric rail_fast ship" speed="13.89" length="21.01" shape="944.96,348.22 926.05,357.45"/>
        <lane id=":25326722_6_1" index="1" disallow="tram rail_urban rail rail_electric rail_fast ship" speed="13.89" length="21.01" shape="943.53,345.36 924.67,354.56"/>
    </edge>
    <edge id=":25326722_8" function="internal">
        <lane id=":25326722_8_0" index="0" disallow="tram rail_urban rail rail_electric rail_fast ship" speed="9.26" length="7.06" shape="943.53,345.36 938.49,347.03 936.75,346.89"/>
    </edge>
    <edge id=":25326722_9" function="internal">
        <lane id=":25326722_9_0" index="0" disallow="tram rail_urban rail rail_electric rail_fast ship" speed="3.65" length="2.34" shape="943.53,345.36 942.10,345.18 941.39,344.64"/>
    </edge>
    <edge id=":25326722_20" function="internal">
        <lane id=":25326722_20_0" index="0" disallow="tram rail_urban rail rail_electric rail_fast ship" speed="9.26" length="12.36" shape="936.75,346.89 934.12,346.67 930.43,344.29 927.43,339.88"/>
    </edge>
    <edge id=":25326722_21" function="internal">
        <lane id=":25326722_21_0" index="0" disallow="tram rail_urban rail rail_electric rail_fast ship" speed="3.65" length="2.34" shape="941.39,344.64 941.39,343.74 942.11,342.49"/>
    </edge>
    <edge id=":25326722_10" function="internal">
        <lane id=":25326722_10_0" index="0" disallow="tram rail_urban rail rail_electric rail_fast ship" speed="6.51" length="9.06" shape="933.17,337.06 934.58,339.12 936.29,340.24 938.33,340.40 940.68,339.63"/>
    </edge>
    <edge id=":25326722_11" function="internal">
        <lane id=":25326722_11_0" index="0" disallow="tram rail_urban rail rail_electric rail_fast ship" speed="13.89" length="21.10" shape="933.17,337.06 942.20,356.18"/>
        <lane id=":25326722_11_1" index="1" disallow="tram rail_urban rail rail_electric rail_fast ship" speed="13.89" length="21.10" shape="930.30,338.47 939.29,357.50"/>
    </edge>
    <edge id=":25326722_13" function="internal">
        <lane id=":25326722_13_0" index="0" disallow="tram rail_urban rail rail_electric rail_fast ship" speed="9.25" length="19.48" shape="930.30,338.47 931.95,343.54 931.56,347.92 929.13,351.59 924.67,354.56"/>
    </edge>
    <edge id=":25326722_14" function="internal">
        <lane id=":25326722_14_0" index="0" disallow="tram rail_urban rail rail_electric rail_fast ship" speed="3.65" length="4.67" shape="930.30,338.47 930.11,339.90 929.57,340.61 928.68,340.61 927.43,339.88"/>
    </edge>
    <edge id=":25326722_15" function="internal">
        <lane id=":25326722_15_0" index="0" disallow="tram rail_urban rail rail_electric rail_fast ship" speed="6.50" length="9.08" shape="921.91,348.78 924.00,347.40 925.13,345.69 925.32,343.65 924.56,341.29"/>
    </edge>
    <edge id=":25326722_16" function="internal">
        <lane id=":25326722_16_0" index="0" disallow="tram rail_urban rail rail_electric rail_fast ship" speed="13.89" length="20.91" shape="921.91,348.78 940.68,339.63"/>
        <lane id=":25326722_16_1" index="1" disallow="tram rail_urban rail rail_electric rail_fast ship" speed="13.89" length="20.91" shape="923.29,351.67 942.11,342.49"/>
    </edge>
    <edge id=":25326722_18" function="internal">
        <lane id=":25326722_18_0" index="0" disallow="tram rail_urban rail rail_electric rail_fast ship" speed="9.23" length="6.88" shape="923.29,351.67 928.41,350.07 929.92,350.22"/>
    </edge>
    <edge id=":25326722_19" function="internal">
        <lane id=":25326722_19_0" index="0" disallow="tram rail_urban rail rail_electric rail_fast ship" speed="3.65" length="2.34" shape="923.29,351.67 924.72,351.88 925.42,352.42"/>
    </edge>
    <edge id=":25326722_22" function="internal">
        <lane id=":25326722_22_0" index="0" disallow="tram rail_urban rail rail_electric rail_fast ship" speed="9.23" length="12.63" shape="929.92,350.22 932.78,350.51 936.40,352.98 939.29,357.50"/>
    </edge>
    <edge id=":25326722_23" function="internal">
        <lane id=":25326722_23_0" index="0" disallow="tram rail_urban rail rail_electric rail_fast ship" speed="3.65" length="2.34" shape="925.42,352.42 925.41,353.32 924.67,354.56"/>
    </edge>
    <edge id=":25326724_0" function="internal">
        <lane id=":25326724_0_0" index="0" disallow="tram rail_urban rail rail_electric rail_fast ship" speed="13.89" length="9.67" shape="1035.09,586.12 1034.32,583.43 1033.75,581.60 1033.05,579.82 1031.91,577.26"/>
        <lane id=":25326724_0_1" index="1" disallow="tram rail_urban rail rail_electric rail_fast ship" speed="13.89" length="9.67" shape="1038.17,585.25 1037.36,582.42 1036.76,580.50 1036.02,578.63 1034.83,575.94"/>
    </edge>
    <edge id=":25326724_2" function="internal">
        <lane id=":25326724_2_0" index="0" disallow="tram rail_urban rail rail_electric rail_fast ship" speed="3.65" length="2.34" shape="1038.17,585.25 1038.61,583.88 1039.27,583.27"/>
    </edge>
    <edge id=":25326724_8" function="internal">
        <lane id=":25326724_8_0" index="0" disallow="tram rail_urban rail rail_electric rail_fast ship" speed="3.65" length="2.34" shape="1039.27,583.27 1040.15,583.44 1041.25,584.38"/>
    </edge>
    <edge id=":25326724_3" function="internal">
        <lane id=":25326724_3_0" index="0" disallow="tram rail_urban rail rail_electric rail_fast ship" speed="6.51" length="8.95" shape="1048.12,576.61 1045.90,577.63 1044.52,579.12 1044.00,581.08 1044.33,583.51"/>
    </edge>
    <edge id=":25326724_4" function="internal">
        <lane id=":25326724_4_0" index="0" disallow="tram rail_urban rail rail_electric rail_fast ship" speed="8.43" length="14.19" shape="1048.12,576.61 1043.00,577.84 1039.07,578.14 1036.35,577.51 1034.83,575.94"/>
    </edge>
    <edge id=":25326724_5" function="internal">
        <lane id=":25326724_5_0" index="0" disallow="tram rail_urban rail rail_electric rail_fast ship" speed="13.89" length="10.63" shape="1040.65,573.30 1041.96,576.24 1042.78,578.30 1043.44,580.40 1044.33,583.51"/>
        <lane id=":25326724_5_1" index="1" disallow="tram rail_urban rail rail_electric rail_fast ship" speed="13.89" length="10.63" shape="1037.74,574.62 1038.99,577.44 1039.77,579.40 1040.40,581.41 1041.25,584.38"/>
    </edge>
    <edge id=":25326724_7" function="internal">
        <lane id=":25326724_7_0" index="0" disallow="tram rail_urban rail rail_electric rail_fast ship" speed="3.65" length="2.34" shape="1037.74,574.62 1037.51,576.04 1036.94,576.74"/>
    </edge>
    <edge id=":25326724_9" function="internal">
        <lane id=":25326724_9_0" index="0" disallow="tram rail_urban rail rail_electric rail_fast ship" speed="3.65" length="2.34" shape="1036.94,576.74 1036.05,576.71 1034.83,575.94"/>
    </edge>
    <edge id=":25326725_0" function="internal">
        <lane id=":25326725_0_0" index="0" disallow="tram rail_urban rail rail_electric rail_fast ship" speed="13.89" length="0.59" shape="897.81,664.63 897.59,664.08"/>
    </edge>
    <edge id=":25326725_1" function="internal">
        <lane id=":25326725_1_0" index="0" disallow="tram rail_urban rail rail_electric rail_fast ship" speed="13.89" length="0.17" shape="900.55,662.86 900.61,663.02"/>
    </edge>
    <edge id=":25326728_0" function="internal">
        <lane id=":25326728_0_0" index="0" disallow="tram rail_urban rail rail_electric rail_fast ship" speed="3.65" length="4.67" shape="927.75,855.24 927.13,856.54 926.39,857.05 925.54,856.77 924.58,855.69"/>
    </edge>
    <edge id=":25326729_0" function="internal">
        <lane id=":25326729_0_0" index="0" disallow="tram rail_urban rail rail_electric rail_fast ship" speed="3.65" length="4.67" shape="1074.76,835.72 1073.81,836.80 1072.97,837.10 1072.23,836.60 1071.59,835.31"/>
    </edge>
    <edge id=":25326731_0" function="internal">
        <lane id=":25326731_0_0" index="0" disallow="tram rail_urban rail rail_electric rail_fast ship" speed="13.89" length="14.68" shape="1096.95,326.17 1090.68,312.89"/>
    </edge>
    <edge id=":25326731_1" function="internal">
        <lane id=":25326731_1_0" index="0" disallow="tram rail_urban rail rail_electric rail_fast ship" speed="7.56" length="6.13" shape="1096.95,326.17 1095.65,321.89 1095.93,320.26"/>
    </edge>
    <edge id=":25326731_2" function="internal">
        <lane id=":25326731_2_0" index="0" disallow="tram rail_urban rail rail_electric rail_fast ship" speed="3.65" length="2.34" shape="1096.95,326.17 1097.17,324.74 1097.72,324.04"/>
    </edge>
    <edge id=":25326731_9" function="internal">
        <lane id=":25326731_9_0" index="0" disallow="tram rail_urban rail rail_electric rail_fast ship" speed="7.56" length="9.41" shape="1095.93,320.26 1096.21,318.65 1098.65,316.43 1102.96,315.24"/>
    </edge>
    <edge id=":25326731_10" function="internal">
        <lane id=":25326731_10_0" index="0" disallow="tram rail_urban rail rail_electric rail_fast ship" speed="3.65" length="2.34" shape="1097.72,324.04 1098.62,324.06 1099.85,324.81"/>
    </edge>
    <edge id=":25326731_3" function="internal">
        <lane id=":25326731_3_0" index="0" disallow="tram rail_urban rail rail_electric rail_fast ship" speed="5.94" length="9.09" shape="1103.37,318.41 1100.84,319.11 1099.42,320.41 1099.09,322.31 1099.85,324.81"/>
    </edge>
    <edge id=":25326731_4" function="internal">
        <lane id=":25326731_4_0" index="0" disallow="tram rail_urban rail rail_electric rail_fast ship" speed="9.33" length="14.87" shape="1103.37,318.41 1099.03,318.52 1095.46,317.64 1092.68,315.77 1090.68,312.89"/>
    </edge>
    <edge id=":25326731_5" function="internal">
        <lane id=":25326731_5_0" index="0" disallow="tram rail_urban rail rail_electric rail_fast ship" speed="3.65" length="4.67" shape="1103.37,318.41 1102.07,317.77 1101.58,317.03 1101.87,316.19 1102.96,315.24"/>
    </edge>
    <edge id=":25326731_6" function="internal">
        <lane id=":25326731_6_0" index="0" disallow="tram rail_urban rail rail_electric rail_fast ship" speed="8.04" length="10.84" shape="1093.56,311.51 1094.98,313.49 1097.02,314.77 1099.68,315.35 1102.96,315.24"/>
    </edge>
    <edge id=":25326731_7" function="internal">
        <lane id=":25326731_7_0" index="0" disallow="tram rail_urban rail rail_electric rail_fast ship" speed="13.89" length="14.71" shape="1093.56,311.51 1099.85,324.81"/>
    </edge>
    <edge id=":25326731_8" function="internal">
        <lane id=":25326731_8_0" index="0" disallow="tram rail_urban rail rail_electric rail_fast ship" speed="3.65" length="2.34" shape="1093.56,311.51 1093.36,312.94 1092.81,313.65"/>
    </edge>
    <edge id=":25326731_11" function="internal">