<routes xmlns:xsi="http://www.w3.org/2001/XMLSchema-instance" xsi:noNamespaceSchemaLocation="http://sumo.dlr.de/xsd/routes_file.xsd">
  <flow id="B_C" begin="0" end="100" vehsPerHour="100" from="inB" to="outC"/>
  <flow id="B_D" begin="0" end="100" vehsPerHour="100" from="inB" to="outD"/>
  <flow id="C_B" begin="0" end="100" vehsPerHour="100" from="inC" to="outB"/>
  <flow id="C_D" begin="0" end="100" vehsPerHour="100" from="inC" to="outD"/>
  <flow id="D_B" begin="0" end="100" vehsPerHour="100" from="inD" to="outB"/>
  <flow id="D_C" begin="0" end="100" vehsPerHour="100" from="inD" to="outC"/>
</routes>
