<routes xmlns:xsi="http://www.w3.org/2001/XMLSchema-instance" xsi:noNamespaceSchemaLocation="http://sumo.dlr.de/xsd/routes_file.xsd">
  <vType id="mycar" length="5" guiShape="passenger/sedan"/>
  <flow id="B_C_0" begin="0" end="150" probability="0.20833333333333334" from="inB" to="outC" type="mycar"/>
  <flow id="B_D_0" begin="0" end="150" probability="0.20833333333333334" from="inB" to="outD" type="mycar"/>
  <flow id="C_B_0" begin="0" end="150" probability="0.20833333333333334" from="inC" to="outB" type="mycar"/>
  <flow id="C_D_0" begin="0" end="150" probability="0.20833333333333334" from="inC" to="outD" type="mycar"/>
  <flow id="D_B_0" begin="0" end="150" probability="0.20833333333333334" from="inD" to="outB" type="mycar"/>
  <flow id="D_C_0" begin="0" end="150" probability="0.20833333333333334" from="inD" to="outC" type="mycar"/>
</routes>
