<routes xmlns:xsi="http://www.w3.org/2001/XMLSchema-instance" xsi:noNamespaceSchemaLocation="http://sumo.dlr.de/xsd/routes_file.xsd">
  <flow id="B_C_0" begin="0" end="150" probability="0.16666666666666666" from="inB" to="outC"/>
  <flow id="B_D_0" begin="0" end="150" probability="0.16666666666666666" from="inB" to="outD"/>
  <flow id="C_B_0" begin="0" end="150" probability="0.16666666666666666" from="inC" to="outB"/>
  <flow id="C_D_0" begin="0" end="150" probability="0.16666666666666666" from="inC" to="outD"/>
  <flow id="D_B_0" begin="0" end="150" probability="0.16666666666666666" from="inD" to="outB"/>
  <flow id="D_C_0" begin="0" end="150" probability="0.16666666666666666" from="inD" to="outC"/>
</routes>
