<routes xmlns:xsi="http://www.w3.org/2001/XMLSchema-instance" xsi:noNamespaceSchemaLocation="http://sumo.dlr.de/xsd/routes_file.xsd">
  <flow id="A_B_0" begin="0" end="150" probability="0.4166666666666667" from="inA" to="outB"/>
  <flow id="A_B_1" begin="0" end="150" probability="0.4166666666666667" from="inA" to="outB"/>
  <flow id="A_C_0" begin="0" end="150" probability="0.4166666666666667" from="inA" to="outC"/>
  <flow id="A_C_1" begin="0" end="150" probability="0.4166666666666667" from="inA" to="outC"/>
  <flow id="B_A_0" begin="0" end="150" probability="0.4166666666666667" from="inB" to="outA"/>
  <flow id="B_A_1" begin="0" end="150" probability="0.4166666666666667" from="inB" to="outA"/>
  <flow id="B_C_0" begin="0" end="150" probability="0.4166666666666667" from="inB" to="outC"/>
  <flow id="B_C_1" begin="0" end="150" probability="0.4166666666666667" from="inB" to="outC"/>
  <flow id="C_A_0" begin="0" end="150" probability="0.4166666666666667" from="inC" to="outA"/>
  <flow id="C_A_1" begin="0" end="150" probability="0.4166666666666667" from="inC" to="outA"/>
  <flow id="C_B_0" begin="0" end="150" probability="0.4166666666666667" from="inC" to="outB"/>
  <flow id="C_B_1" begin="0" end="150" probability="0.4166666666666667" from="inC" to="outB"/>
</routes>
