<configuration>
    <input>
        <net-file value="4way.net.xml"/>
        <route-files value="4way.rou.xml"/>

    </input>
</configuration>