<?xml version="1.0" encoding="UTF-8"?>

<!-- generated on 10/09/20 08:44:45 by Eclipse SUMO netconvert Version 1.6.0
<configuration xmlns:xsi="http://www.w3.org/2001/XMLSchema-instance" xsi:noNamespaceSchemaLocation="http://sumo.dlr.de/xsd/netconvertConfiguration.xsd">

    <input>
        <node-files value="C:\Users\TLOU%20LEBELO\Documents\GitHub\Traffic-Light-Optimization\tl_optimization\main_app\media\config\intersection\nodes\inter_38.nod.xml"/>
        <edge-files value="C:\Users\TLOU%20LEBELO\Documents\GitHub\Traffic-Light-Optimization\tl_optimization\main_app\media\config\intersection\edges\inter_38.edg.xml"/>
    </input>

    <output>
        <output-file value="C:\Users\TLOU%20LEBELO\Documents\GitHub\Traffic-Light-Optimization\tl_optimization\main_app\simulation\generic\road_intersection.net.xml"/>
    </output>

    <report>
        <aggregate-warnings value="5"/>
    </report>

</configuration>
-->

<net version="1.6" junctionCornerDetail="5" limitTurnSpeed="5.50" xmlns:xsi="http://www.w3.org/2001/XMLSchema-instance" xsi:noNamespaceSchemaLocation="http://sumo.dlr.de/xsd/net_file.xsd">

    <location netOffset="45.00,45.00" convBoundary="0.00,0.00,90.00,90.00" origBoundary="-45.00,-45.00,45.00,45.00" projParameter="!"/>

    <edge id=":0_0" function="internal">
        <lane id=":0_0_0" index="0" speed="6.51" length="9.03" shape="40.20,52.20 39.85,49.75 38.80,48.00 37.05,46.95 34.60,46.60"/>
    </edge>
    <edge id=":0_1" function="internal">
        <lane id=":0_1_0" index="0" speed="10.00" length="14.83" shape="40.20,52.20 40.70,47.54 41.80,44.11 42.90,41.12 43.40,37.80"/>
    </edge>
    <edge id=":0_2" function="internal">
        <lane id=":0_2_0" index="0" speed="8.67" length="5.26" shape="43.40,52.20 44.15,48.35 45.00,47.31"/>
    </edge>
    <edge id=":0_3" function="internal">
        <lane id=":0_3_0" index="0" speed="3.65" length="2.34" shape="43.40,52.20 44.20,51.00 45.00,50.60"/>
    </edge>
    <edge id=":0_16" function="internal">
        <lane id=":0_16_0" index="0" speed="8.67" length="11.59" shape="45.00,47.31 46.40,45.60 50.15,43.95 55.40,43.40"/>
    </edge>
    <edge id=":0_17" function="internal">
        <lane id=":0_17_0" index="0" speed="3.65" length="2.34" shape="45.00,50.60 45.80,51.00 46.60,52.20"/>
    </edge>
    <edge id=":0_4" function="internal">
        <lane id=":0_4_0" index="0" speed="6.51" length="9.03" shape="55.40,46.60 52.95,46.95 51.20,48.00 50.15,49.75 49.80,52.20"/>
    </edge>
    <edge id=":0_5" function="internal">
        <lane id=":0_5_0" index="0" speed="10.00" length="20.80" shape="55.40,46.60 34.60,46.60">
            <neigh lane=":0_13_0"/>
        </lane>
    </edge>
    <edge id=":0_6" function="internal">
        <lane id=":0_6_0" index="0" speed="8.67" length="7.89" shape="55.40,46.60 50.15,46.05 47.76,45.00"/>
    </edge>
    <edge id=":0_7" function="internal">
        <lane id=":0_7_0" index="0" speed="3.65" length="2.34" shape="55.40,46.60 54.20,45.80 53.80,45.00"/>
    </edge>
    <edge id=":0_18" function="internal">
        <lane id=":0_18_0" index="0" speed="8.67" length="8.97" shape="47.76,45.00 46.40,44.40 44.15,41.65 43.40,37.80"/>
    </edge>
    <edge id=":0_19" function="internal">
        <lane id=":0_19_0" index="0" speed="3.65" length="2.34" shape="53.80,45.00 54.20,44.20 55.40,43.40"/>
    </edge>
    <edge id=":0_8" function="internal">
        <lane id=":0_8_0" index="0" speed="7.33" length="11.73" shape="46.60,37.80 47.15,40.25 48.80,42.00 51.55,43.05 55.40,43.40"/>
    </edge>
    <edge id=":0_9" function="internal">
        <lane id=":0_9_0" index="0" speed="10.00" length="14.40" shape="46.60,37.80 46.60,52.20"/>
    </edge>
    <edge id=":0_10" function="internal">
        <lane id=":0_10_0" index="0" speed="8.67" length="7.74" shape="46.60,37.80 45.85,41.65 43.60,44.40 43.36,44.51"/>
    </edge>
    <edge id=":0_11" function="internal">
        <lane id=":0_11_0" index="0" speed="3.65" length="2.57" shape="46.60,37.80 45.80,39.00 45.00,39.40 44.79,39.30"/>
    </edge>
    <edge id=":0_20" function="internal">
        <lane id=":0_20_0" index="0" speed="8.67" length="9.11" shape="43.36,44.51 39.85,46.05 34.60,46.60"/>
    </edge>
    <edge id=":0_21" function="internal">
        <lane id=":0_21_0" index="0" speed="3.65" length="2.10" shape="44.79,39.30 44.20,39.00 43.40,37.80"/>
    </edge>
    <edge id=":0_12" function="internal">
        <lane id=":0_12_0" index="0" speed="7.33" length="11.73" shape="34.60,43.40 38.45,43.05 41.20,42.00 42.85,40.25 43.40,37.80"/>
    </edge>
    <edge id=":0_13" function="internal">
        <lane id=":0_13_0" index="0" speed="10.00" length="20.80" shape="34.60,43.40 55.40,43.40">
            <neigh lane=":0_5_0"/>
        </lane>
    </edge>
    <edge id=":0_14" function="internal">
        <lane id=":0_14_0" index="0" speed="8.67" length="7.89" shape="34.60,43.40 39.85,43.95 42.24,45.00"/>
    </edge>
    <edge id=":0_15" function="internal">
        <lane id=":0_15_0" index="0" speed="3.65" length="2.34" shape="34.60,43.40 35.80,44.20 36.20,45.00"/>
    </edge>
    <edge id=":0_22" function="internal">
        <lane id=":0_22_0" index="0" speed="8.67" length="8.97" shape="42.24,45.00 43.60,45.60 45.85,48.35 46.60,52.20"/>
    </edge>
    <edge id=":0_23" function="internal">
        <lane id=":0_23_0" index="0" speed="3.65" length="2.34" shape="36.20,45.00 35.80,45.80 34.60,46.60"/>
    </edge>
    <edge id=":A_0" function="internal">
        <lane id=":A_0_0" index="0" speed="3.65" length="4.67" shape="46.60,90.00 45.80,91.20 45.00,91.60 44.20,91.20 43.40,90.00"/>
    </edge>
    <edge id=":B_0" function="internal">
        <lane id=":B_0_0" index="0" speed="3.65" length="4.67" shape="90.00,43.40 91.20,44.20 91.60,45.00 91.20,45.80 90.00,46.60"/>
    </edge>
    <edge id=":C_0" function="internal">
        <lane id=":C_0_0" index="0" speed="3.65" length="4.67" shape="43.40,0.00 44.20,-1.20 45.00,-1.60 45.80,-1.20 46.60,0.00"/>
    </edge>
    <edge id=":D_0" function="internal">
        <lane id=":D_0_0" index="0" speed="3.65" length="4.67" shape="0.00,46.60 -1.20,45.80 -1.60,45.00 -1.20,44.20 0.00,43.40"/>
    </edge>

    <edge id="inA" from="A" to="0" priority="1" length="40.00">
        <lane id="inA_0" index="0" speed="10.00" length="40.00" shape="40.20,90.00 40.20,52.20"/>
        <lane id="inA_1" index="1" speed="10.00" length="40.00" shape="43.40,90.00 43.40,52.20">
            <neigh lane="outA_1"/>
        </lane>
    </edge>
    <edge id="inB" from="B" to="0" priority="1" length="40.00">
        <lane id="inB_0" index="0" speed="10.00" length="40.00" shape="90.00,46.60 55.40,46.60">
            <neigh lane="outB_0"/>
        </lane>
    </edge>
    <edge id="inC" from="C" to="0" priority="1" length="40.00">
        <lane id="inC_0" index="0" speed="10.00" length="40.00" shape="46.60,0.00 46.60,37.80">
            <neigh lane="outC_0"/>
        </lane>
    </edge>
    <edge id="inD" from="D" to="0" priority="1" length="40.00">
        <lane id="inD_0" index="0" speed="10.00" length="40.00" shape="0.00,43.40 34.60,43.40">
            <neigh lane="outD_0"/>
        </lane>
    </edge>
    <edge id="outA" from="0" to="A" priority="1" length="40.00">
        <lane id="outA_0" index="0" speed="10.00" length="40.00" shape="49.80,52.20 49.80,90.00"/>
        <lane id="outA_1" index="1" speed="10.00" length="40.00" shape="46.60,52.20 46.60,90.00">
            <neigh lane="inA_1"/>
        </lane>
    </edge>
    <edge id="outB" from="0" to="B" priority="1" length="40.00">
        <lane id="outB_0" index="0" speed="10.00" length="40.00" shape="55.40,43.40 90.00,43.40">
            <neigh lane="inB_0"/>
        </lane>
    </edge>
    <edge id="outC" from="0" to="C" priority="1" length="40.00">
        <lane id="outC_0" index="0" speed="10.00" length="40.00" shape="43.40,37.80 43.40,0.00">
            <neigh lane="inC_0"/>
        </lane>
    </edge>
    <edge id="outD" from="0" to="D" priority="1" length="40.00">
        <lane id="outD_0" index="0" speed="10.00" length="40.00" shape="34.60,46.60 0.00,46.60">
            <neigh lane="inD_0"/>
        </lane>
    </edge>

    <tlLogic id="0" type="static" programID="0" offset="0">
        <phase duration="38" state="GGggrrrrGGggrrrr"/>
        <phase duration="3"  state="yyggrrrryyggrrrr"/>
        <phase duration="6"  state="rrGGrrrrrrGGrrrr"/>
        <phase duration="3"  state="rryyrrrrrryyrrrr"/>
        <phase duration="37" state="rrrrGGggrrrrGGgg"/>
        <phase duration="3"  state="rrrryyyyrrrryyyy"/>
    </tlLogic>

    <junction id="0" type="traffic_light" x="45.00" y="45.00" incLanes="inA_0 inA_1 inB_0 inC_0 inD_0" intLanes=":0_0_0 :0_1_0 :0_16_0 :0_17_0 :0_4_0 :0_5_0 :0_18_0 :0_19_0 :0_8_0 :0_9_0 :0_20_0 :0_21_0 :0_12_0 :0_13_0 :0_22_0 :0_23_0" shape="38.60,52.20 51.40,52.20 51.84,49.98 52.40,49.20 53.18,48.64 54.18,48.31 55.40,48.20 55.40,41.80 53.20,41.69 51.40,41.36 50.00,40.80 49.00,40.02 48.40,39.02 48.20,37.80 41.80,37.80 41.00,40.02 40.00,40.80 38.60,41.36 36.80,41.69 34.60,41.80 34.60,48.20 36.82,48.64 37.60,49.20 38.16,49.98 38.49,50.98">
        <request index="0"  response="0000000000000000" foes="1000010000100000" cont="0"/>
        <request index="1"  response="0100000001000000" foes="0111110001100000" cont="0"/>
        <request index="2"  response="0100001101000000" foes="0110001111100000" cont="1"/>
        <request index="3"  response="0100001000000000" foes="0100001000000000" cont="1"/>
        <request index="4"  response="0000000000000000" foes="0000000000000000" cont="0"/>
        <request index="5"  response="0000011000000111" foes="1100011000000111" cont="0"/>
        <request index="6"  response="0011011000000110" foes="0011111000000110" cont="1"/>
        <request index="7"  response="0010000100000100" foes="0010000100000100" cont="1"/>
        <request index="8"  response="0000000000000000" foes="0010000010000100" cont="0"/>
        <request index="9"  response="0100000001000000" foes="0110000001101100" cont="0"/>
        <request index="10" response="0100000001000011" foes="1110000001100011" cont="1"/>
        <request index="11" response="0001000001000010" foes="0001000001000010" cont="1"/>
        <request index="12" response="0000000000000010" foes="0000100001000010" cont="0"/>
        <request index="13" response="0000011100000110" foes="0000011111000110" cont="0"/>
        <request index="14" response="0000011000100110" foes="0000011000101110" cont="1"/>
        <request index="15" response="0000010000100001" foes="0000010000100001" cont="1"/>
    </junction>
    <junction id="A" type="priority" x="45.00" y="90.00" incLanes="outA_0 outA_1" intLanes=":A_0_0" shape="45.00,90.00 51.40,90.00 45.00,90.00">
        <request index="0" response="0" foes="0" cont="0"/>
    </junction>
    <junction id="B" type="priority" x="90.00" y="45.00" incLanes="outB_0" intLanes=":B_0_0" shape="90.00,45.00 90.00,41.80 90.00,45.00">
        <request index="0" response="0" foes="0" cont="0"/>
    </junction>
    <junction id="C" type="priority" x="45.00" y="0.00" incLanes="outC_0" intLanes=":C_0_0" shape="45.00,0.00 41.80,0.00 45.00,0.00">
        <request index="0" response="0" foes="0" cont="0"/>
    </junction>
    <junction id="D" type="priority" x="0.00" y="45.00" incLanes="outD_0" intLanes=":D_0_0" shape="0.00,45.00 0.00,48.20 0.00,45.00">
        <request index="0" response="0" foes="0" cont="0"/>
    </junction>

    <junction id=":0_16_0" type="internal" x="45.00" y="47.31" incLanes=":0_2_0 inC_0" intLanes=":0_5_0 :0_6_0 :0_7_0 :0_8_0 :0_9_0 :0_13_0 :0_14_0"/>
    <junction id=":0_17_0" type="internal" x="45.00" y="50.60" incLanes=":0_3_0 inB_0 inC_0 inD_0" intLanes=":0_4_0 :0_9_0 :0_14_0"/>
    <junction id=":0_18_0" type="internal" x="47.76" y="45.00" incLanes=":0_6_0 inD_0" intLanes=":0_1_0 :0_2_0 :0_9_0 :0_10_0 :0_11_0 :0_12_0 :0_13_0"/>
    <junction id=":0_19_0" type="internal" x="53.80" y="45.00" incLanes=":0_7_0 inA_1 inC_0 inD_0" intLanes=":0_2_0 :0_8_0 :0_13_0"/>
    <junction id=":0_20_0" type="internal" x="43.36" y="44.51" incLanes=":0_10_0 inA_0" intLanes=":0_0_0 :0_1_0 :0_5_0 :0_6_0 :0_13_0 :0_14_0 :0_15_0"/>
    <junction id=":0_21_0" type="internal" x="44.79" y="39.30" incLanes=":0_11_0 inA_0 inB_0 inD_0" intLanes=":0_1_0 :0_6_0 :0_12_0"/>
    <junction id=":0_22_0" type="internal" x="42.24" y="45.00" incLanes=":0_14_0 inB_0" intLanes=":0_1_0 :0_2_0 :0_3_0 :0_4_0 :0_5_0 :0_9_0 :0_10_0"/>
    <junction id=":0_23_0" type="internal" x="36.20" y="45.00" incLanes=":0_15_0 inA_0 inB_0 inC_0" intLanes=":0_0_0 :0_5_0 :0_10_0"/>

    <connection from="inA" to="outD" fromLane="0" toLane="0" via=":0_0_0" tl="0" linkIndex="0" dir="r" state="O"/>
    <connection from="inA" to="outC" fromLane="0" toLane="0" via=":0_1_0" tl="0" linkIndex="1" dir="s" state="O"/>
    <connection from="inA" to="outB" fromLane="1" toLane="0" via=":0_2_0" tl="0" linkIndex="2" dir="l" state="o"/>
    <connection from="inA" to="outA" fromLane="1" toLane="1" via=":0_3_0" tl="0" linkIndex="3" dir="t" state="o"/>
    <connection from="inB" to="outA" fromLane="0" toLane="0" via=":0_4_0" tl="0" linkIndex="4" dir="r" state="O"/>
    <connection from="inB" to="outD" fromLane="0" toLane="0" via=":0_5_0" tl="0" linkIndex="5" dir="s" state="o"/>
    <connection from="inB" to="outC" fromLane="0" toLane="0" via=":0_6_0" tl="0" linkIndex="6" dir="l" state="o"/>
    <connection from="inB" to="outB" fromLane="0" toLane="0" via=":0_7_0" tl="0" linkIndex="7" dir="t" state="o"/>
    <connection from="inC" to="outB" fromLane="0" toLane="0" via=":0_8_0" tl="0" linkIndex="8" dir="r" state="O"/>
    <connection from="inC" to="outA" fromLane="0" toLane="1" via=":0_9_0" tl="0" linkIndex="9" dir="s" state="O"/>
    <connection from="inC" to="outD" fromLane="0" toLane="0" via=":0_10_0" tl="0" linkIndex="10" dir="l" state="o"/>
    <connection from="inC" to="outC" fromLane="0" toLane="0" via=":0_11_0" tl="0" linkIndex="11" dir="t" state="o"/>
    <connection from="inD" to="outC" fromLane="0" toLane="0" via=":0_12_0" tl="0" linkIndex="12" dir="r" state="o"/>
    <connection from="inD" to="outB" fromLane="0" toLane="0" via=":0_13_0" tl="0" linkIndex="13" dir="s" state="o"/>
    <connection from="inD" to="outA" fromLane="0" toLane="1" via=":0_14_0" tl="0" linkIndex="14" dir="l" state="o"/>
    <connection from="inD" to="outD" fromLane="0" toLane="0" via=":0_15_0" tl="0" linkIndex="15" dir="t" state="o"/>
    <connection from="outA" to="inA" fromLane="1" toLane="1" via=":A_0_0" dir="t" state="M"/>
    <connection from="outB" to="inB" fromLane="0" toLane="0" via=":B_0_0" dir="t" state="M"/>
    <connection from="outC" to="inC" fromLane="0" toLane="0" via=":C_0_0" dir="t" state="M"/>
    <connection from="outD" to="inD" fromLane="0" toLane="0" via=":D_0_0" dir="t" state="M"/>

    <connection from=":0_0" to="outD" fromLane="0" toLane="0" dir="r" state="M"/>
    <connection from=":0_1" to="outC" fromLane="0" toLane="0" dir="s" state="M"/>
    <connection from=":0_2" to="outB" fromLane="0" toLane="0" via=":0_16_0" dir="l" state="m"/>
    <connection from=":0_16" to="outB" fromLane="0" toLane="0" dir="l" state="M"/>
    <connection from=":0_3" to="outA" fromLane="0" toLane="1" via=":0_17_0" dir="t" state="m"/>
    <connection from=":0_17" to="outA" fromLane="0" toLane="1" dir="t" state="M"/>
    <connection from=":0_4" to="outA" fromLane="0" toLane="0" dir="r" state="M"/>
    <connection from=":0_5" to="outD" fromLane="0" toLane="0" dir="s" state="M"/>
    <connection from=":0_6" to="outC" fromLane="0" toLane="0" via=":0_18_0" dir="l" state="m"/>
    <connection from=":0_18" to="outC" fromLane="0" toLane="0" dir="l" state="M"/>
    <connection from=":0_7" to="outB" fromLane="0" toLane="0" via=":0_19_0" dir="t" state="m"/>
    <connection from=":0_19" to="outB" fromLane="0" toLane="0" dir="t" state="M"/>
    <connection from=":0_8" to="outB" fromLane="0" toLane="0" dir="r" state="M"/>
    <connection from=":0_9" to="outA" fromLane="0" toLane="1" dir="s" state="M"/>
    <connection from=":0_10" to="outD" fromLane="0" toLane="0" via=":0_20_0" dir="l" state="m"/>
    <connection from=":0_20" to="outD" fromLane="0" toLane="0" dir="l" state="M"/>
    <connection from=":0_11" to="outC" fromLane="0" toLane="0" via=":0_21_0" dir="t" state="m"/>
    <connection from=":0_21" to="outC" fromLane="0" toLane="0" dir="t" state="M"/>
    <connection from=":0_12" to="outC" fromLane="0" toLane="0" dir="r" state="M"/>
    <connection from=":0_13" to="outB" fromLane="0" toLane="0" dir="s" state="M"/>
    <connection from=":0_14" to="outA" fromLane="0" toLane="1" via=":0_22_0" dir="l" state="m"/>
    <connection from=":0_22" to="outA" fromLane="0" toLane="1" dir="l" state="M"/>
    <connection from=":0_15" to="outD" fromLane="0" toLane="0" via=":0_23_0" dir="t" state="m"/>
    <connection from=":0_23" to="outD" fromLane="0" toLane="0" dir="t" state="M"/>
    <connection from=":A_0" to="inA" fromLane="0" toLane="1" dir="t" state="M"/>
    <connection from=":B_0" to="inB" fromLane="0" toLane="0" dir="t" state="M"/>
    <connection from=":C_0" to="inC" fromLane="0" toLane="0" dir="t" state="M"/>
    <connection from=":D_0" to="inD" fromLane="0" toLane="0" dir="t" state="M"/>

</net>
