<?xml version="1.0" encoding="UTF-8"?>

<!-- generated on 09/14/20 10:58:08 by Eclipse SUMO netconvert Version 1.6.0
<configuration xmlns:xsi="http://www.w3.org/2001/XMLSchema-instance" xsi:noNamespaceSchemaLocation="http://sumo.dlr.de/xsd/netconvertConfiguration.xsd">

    <input>
        <node-files value="C:\Users\TLOU%20LEBELO\Documents\GitHub\Traffic-Light-Optimization\tl_optimization\main_app\media\config\intersection\nodes\inter_33.nod.xml"/>
        <edge-files value="C:\Users\TLOU%20LEBELO\Documents\GitHub\Traffic-Light-Optimization\tl_optimization\main_app\media\config\intersection\edges\inter_33.edg.xml"/>
    </input>

    <output>
        <output-file value="C:\Users\TLOU%20LEBELO\Documents\GitHub\Traffic-Light-Optimization\tl_optimization\main_app\simulation\generic\road_intersection.net.xml"/>
    </output>

    <processing>
        <opposites.guess.fix-lengths value="true"/>
    </processing>

    <report>
        <aggregate-warnings value="5"/>
    </report>

</configuration>
-->

<net version="1.6" junctionCornerDetail="5" limitTurnSpeed="5.50" xmlns:xsi="http://www.w3.org/2001/XMLSchema-instance" xsi:noNamespaceSchemaLocation="http://sumo.dlr.de/xsd/net_file.xsd">

    <location netOffset="0.00,500.00" convBoundary="0.00,0.00,500.00,1000.00" origBoundary="0.00,-500.00,500.00,500.00" projParameter="!"/>

    <edge id=":0_0" function="internal">
        <lane id=":0_0_0" index="0" speed="10.00" length="20.80" shape="-1.60,510.40 -1.60,489.60">
            <neigh lane=":0_7_0"/>
        </lane>
    </edge>
    <edge id=":0_1" function="internal">
        <lane id=":0_1_0" index="0" speed="8.67" length="7.89" shape="-1.60,510.40 -1.05,505.15 -0.00,502.76"/>
    </edge>
    <edge id=":0_2" function="internal">
        <lane id=":0_2_0" index="0" speed="3.65" length="2.34" shape="-1.60,510.40 -0.80,509.20 0.00,508.80"/>
    </edge>
    <edge id=":0_9" function="internal">
        <lane id=":0_9_0" index="0" speed="8.67" length="8.97" shape="-0.00,502.76 0.60,501.40 3.35,499.15 7.20,498.40"/>
    </edge>
    <edge id=":0_10" function="internal">
        <lane id=":0_10_0" index="0" speed="3.65" length="2.34" shape="0.00,508.80 0.80,509.20 1.60,510.40"/>
    </edge>
    <edge id=":0_3" function="internal">
        <lane id=":0_3_0" index="0" speed="6.51" length="9.03" shape="7.20,504.80 4.75,505.15 3.00,506.20 1.95,507.95 1.60,510.40"/>
    </edge>
    <edge id=":0_4" function="internal">
        <lane id=":0_4_0" index="0" speed="8.67" length="16.85" shape="7.20,501.60 3.35,500.85 0.60,498.60 -1.05,494.85 -1.60,489.60"/>
    </edge>
    <edge id=":0_5" function="internal">
        <lane id=":0_5_0" index="0" speed="3.65" length="2.34" shape="7.20,501.60 6.00,500.80 5.60,500.00"/>
    </edge>
    <edge id=":0_11" function="internal">
        <lane id=":0_11_0" index="0" speed="3.65" length="2.34" shape="5.60,500.00 6.00,499.20 7.20,498.40"/>
    </edge>
    <edge id=":0_6" function="internal">
        <lane id=":0_6_0" index="0" speed="6.51" length="9.03" shape="1.60,489.60 1.95,492.05 3.00,493.80 4.75,494.85 7.20,495.20"/>
    </edge>
    <edge id=":0_7" function="internal">
        <lane id=":0_7_0" index="0" speed="10.00" length="20.80" shape="1.60,489.60 1.60,510.40">
            <neigh lane=":0_0_0"/>
        </lane>
    </edge>
    <edge id=":0_8" function="internal">
        <lane id=":0_8_0" index="0" speed="3.65" length="2.34" shape="1.60,489.60 0.80,490.80 0.00,491.20"/>
    </edge>
    <edge id=":0_12" function="internal">
        <lane id=":0_12_0" index="0" speed="3.65" length="2.34" shape="0.00,491.20 -0.80,490.80 -1.60,489.60"/>
    </edge>
    <edge id=":A_0" function="internal">
        <lane id=":A_0_0" index="0" speed="3.65" length="4.67" shape="1.60,1000.00 0.80,1001.20 0.00,1001.60 -0.80,1001.20 -1.60,1000.00"/>
    </edge>
    <edge id=":B_0" function="internal">
        <lane id=":B_0_0" index="0" speed="3.65" length="4.67" shape="500.00,498.40 501.20,499.20 501.60,500.00 501.20,500.80 500.00,501.60"/>
    </edge>
    <edge id=":C_0" function="internal">
        <lane id=":C_0_0" index="0" speed="3.65" length="4.67" shape="-1.60,0.00 -0.80,-1.20 0.00,-1.60 0.80,-1.20 1.60,0.00"/>
    </edge>

    <edge id="inA" from="A" to="0" priority="1" length="80.00">
        <lane id="inA_0" index="0" speed="10.00" length="80.00" shape="-1.60,1000.00 -1.60,510.40">
            <neigh lane="outA_0"/>
        </lane>
    </edge>
    <edge id="inB" from="B" to="0" priority="1" length="50.00">
        <lane id="inB_0" index="0" speed="10.00" length="50.00" shape="500.00,504.80 7.20,504.80"/>
        <lane id="inB_1" index="1" speed="10.00" length="50.00" shape="500.00,501.60 7.20,501.60">
            <neigh lane="outB_1"/>
        </lane>
    </edge>
    <edge id="inC" from="C" to="0" priority="1" length="80.00">
        <lane id="inC_0" index="0" speed="10.00" length="80.00" shape="1.60,0.00 1.60,489.60">
            <neigh lane="outC_0"/>
        </lane>
    </edge>
    <edge id="outA" from="0" to="A" priority="1" length="80.00">
        <lane id="outA_0" index="0" speed="10.00" length="80.00" shape="1.60,510.40 1.60,1000.00">
            <neigh lane="inA_0"/>
        </lane>
    </edge>
    <edge id="outB" from="0" to="B" priority="1" length="50.00">
        <lane id="outB_0" index="0" speed="10.00" length="50.00" shape="7.20,495.20 500.00,495.20"/>
        <lane id="outB_1" index="1" speed="10.00" length="50.00" shape="7.20,498.40 500.00,498.40">
            <neigh lane="inB_1"/>
        </lane>
    </edge>
    <edge id="outC" from="0" to="C" priority="1" length="80.00">
        <lane id="outC_0" index="0" speed="10.00" length="80.00" shape="-1.60,489.60 -1.60,0.00">
            <neigh lane="inC_0"/>
        </lane>
    </edge>

    <tlLogic id="0" type="static" programID="0" offset="0">
        <phase duration="42" state="GggrrrGGg"/>
        <phase duration="3"  state="yyyrrryyy"/>
        <phase duration="42" state="rrrGGgGrr"/>
        <phase duration="3"  state="rrryyyyrr"/>
    </tlLogic>

    <junction id="0" type="traffic_light" x="0.00" y="500.00" incLanes="inA_0 inB_0 inB_1 inC_0" intLanes=":0_0_0 :0_9_0 :0_10_0 :0_3_0 :0_4_0 :0_11_0 :0_6_0 :0_7_0 :0_12_0" shape="-3.20,510.40 3.20,510.40 3.64,508.18 4.20,507.40 4.98,506.84 5.98,506.51 7.20,506.40 7.20,493.60 4.98,493.16 4.20,492.60 3.64,491.82 3.31,490.82 3.20,489.60 -3.20,489.60">
        <request index="0" response="000010000" foes="100010000" cont="0"/>
        <request index="1" response="010010000" foes="010110000" cont="1"/>
        <request index="2" response="010001000" foes="010001000" cont="1"/>
        <request index="3" response="000000000" foes="010000100" cont="0"/>
        <request index="4" response="000000010" foes="110000011" cont="0"/>
        <request index="5" response="000000010" foes="000000010" cont="1"/>
        <request index="6" response="000000000" foes="000000000" cont="0"/>
        <request index="7" response="000011000" foes="000011110" cont="0"/>
        <request index="8" response="000010001" foes="000010001" cont="1"/>
    </junction>
    <junction id="A" type="priority" x="0.00" y="1000.00" incLanes="outA_0" intLanes=":A_0_0" shape="0.00,1000.00 3.20,1000.00 0.00,1000.00">
        <request index="0" response="0" foes="0" cont="0"/>
    </junction>
    <junction id="B" type="priority" x="500.00" y="500.00" incLanes="outB_0 outB_1" intLanes=":B_0_0" shape="500.00,500.00 500.00,493.60 500.00,500.00">
        <request index="0" response="0" foes="0" cont="0"/>
    </junction>
    <junction id="C" type="priority" x="0.00" y="0.00" incLanes="outC_0" intLanes=":C_0_0" shape="0.00,0.00 -3.20,0.00 0.00,0.00">
        <request index="0" response="0" foes="0" cont="0"/>
    </junction>

    <junction id=":0_9_0" type="internal" x="-0.00" y="502.76" incLanes=":0_1_0 inC_0" intLanes=":0_4_0 :0_5_0 :0_6_0 :0_7_0"/>
    <junction id=":0_10_0" type="internal" x="0.00" y="508.80" incLanes=":0_2_0 inB_0 inC_0" intLanes=":0_3_0 :0_7_0"/>
    <junction id=":0_11_0" type="internal" x="5.60" y="500.00" incLanes=":0_5_0 inA_0 inC_0" intLanes=":0_1_0 :0_6_0"/>
    <junction id=":0_12_0" type="internal" x="0.00" y="491.20" incLanes=":0_8_0 inA_0 inB_1" intLanes=":0_0_0 :0_4_0"/>

    <connection from="inA" to="outC" fromLane="0" toLane="0" via=":0_0_0" tl="0" linkIndex="0" dir="s" state="o"/>
    <connection from="inA" to="outB" fromLane="0" toLane="1" via=":0_1_0" tl="0" linkIndex="1" dir="l" state="o"/>
    <connection from="inA" to="outA" fromLane="0" toLane="0" via=":0_2_0" tl="0" linkIndex="2" dir="t" state="o"/>
    <connection from="inB" to="outA" fromLane="0" toLane="0" via=":0_3_0" tl="0" linkIndex="3" dir="r" state="O"/>
    <connection from="inB" to="outC" fromLane="1" toLane="0" via=":0_4_0" tl="0" linkIndex="4" dir="l" state="O"/>
    <connection from="inB" to="outB" fromLane="1" toLane="1" via=":0_5_0" tl="0" linkIndex="5" dir="t" state="o"/>
    <connection from="inC" to="outB" fromLane="0" toLane="0" via=":0_6_0" tl="0" linkIndex="6" dir="r" state="O"/>
    <connection from="inC" to="outA" fromLane="0" toLane="0" via=":0_7_0" tl="0" linkIndex="7" dir="s" state="o"/>
    <connection from="inC" to="outC" fromLane="0" toLane="0" via=":0_8_0" tl="0" linkIndex="8" dir="t" state="o"/>
    <connection from="outA" to="inA" fromLane="0" toLane="0" via=":A_0_0" dir="t" state="M"/>
    <connection from="outB" to="inB" fromLane="1" toLane="1" via=":B_0_0" dir="t" state="M"/>
    <connection from="outC" to="inC" fromLane="0" toLane="0" via=":C_0_0" dir="t" state="M"/>

    <connection from=":0_0" to="outC" fromLane="0" toLane="0" dir="s" state="M"/>
    <connection from=":0_1" to="outB" fromLane="0" toLane="1" via=":0_9_0" dir="l" state="m"/>
    <connection from=":0_9" to="outB" fromLane="0" toLane="1" dir="l" state="M"/>
    <connection from=":0_2" to="outA" fromLane="0" toLane="0" via=":0_10_0" dir="t" state="m"/>
    <connection from=":0_10" to="outA" fromLane="0" toLane="0" dir="t" state="M"/>
    <connection from=":0_3" to="outA" fromLane="0" toLane="0" dir="r" state="M"/>
    <connection from=":0_4" to="outC" fromLane="0" toLane="0" dir="l" state="M"/>
    <connection from=":0_5" to="outB" fromLane="0" toLane="1" via=":0_11_0" dir="t" state="m"/>
    <connection from=":0_11" to="outB" fromLane="0" toLane="1" dir="t" state="M"/>
    <connection from=":0_6" to="outB" fromLane="0" toLane="0" dir="r" state="M"/>
    <connection from=":0_7" to="outA" fromLane="0" toLane="0" dir="s" state="M"/>
    <connection from=":0_8" to="outC" fromLane="0" toLane="0" via=":0_12_0" dir="t" state="m"/>
    <connection from=":0_12" to="outC" fromLane="0" toLane="0" dir="t" state="M"/>
    <connection from=":A_0" to="inA" fromLane="0" toLane="0" dir="t" state="M"/>
    <connection from=":B_0" to="inB" fromLane="0" toLane="1" dir="t" state="M"/>
    <connection from=":C_0" to="inC" fromLane="0" toLane="0" dir="t" state="M"/>

</net>
