<?xml version="1.0" encoding="UTF-8"?>

<!-- generated on 09/14/20 10:48:02 by Eclipse SUMO netconvert Version 1.6.0
<configuration xmlns:xsi="http://www.w3.org/2001/XMLSchema-instance" xsi:noNamespaceSchemaLocation="http://sumo.dlr.de/xsd/netconvertConfiguration.xsd">

    <input>
        <node-files value="C:\Users\TLOU%20LEBELO\Documents\GitHub\Traffic-Light-Optimization\tl_optimization\main_app\media\config\intersection\nodes\inter_32.nod.xml"/>
        <edge-files value="C:\Users\TLOU%20LEBELO\Documents\GitHub\Traffic-Light-Optimization\tl_optimization\main_app\media\config\intersection\edges\inter_32.edg.xml"/>
    </input>

    <output>
        <output-file value="C:\Users\TLOU%20LEBELO\Documents\GitHub\Traffic-Light-Optimization\tl_optimization\main_app\simulation\generic\road_intersection.net.xml"/>
    </output>

    <processing>
        <opposites.guess.fix-lengths value="true"/>
    </processing>

    <report>
        <aggregate-warnings value="5"/>
    </report>

</configuration>
-->

<net version="1.6" junctionCornerDetail="5" limitTurnSpeed="5.50" xmlns:xsi="http://www.w3.org/2001/XMLSchema-instance" xsi:noNamespaceSchemaLocation="http://sumo.dlr.de/xsd/net_file.xsd">

    <location netOffset="500.00,500.00" convBoundary="0.00,0.00,1000.00,500.00" origBoundary="-500.00,-500.00,500.00,0.00" projParameter="!"/>

    <edge id=":0_0" function="internal">
        <lane id=":0_0_0" index="0" speed="10.00" length="14.40" shape="507.20,501.60 492.80,501.60">
            <neigh lane=":0_7_0"/>
        </lane>
    </edge>
    <edge id=":0_1" function="internal">
        <lane id=":0_1_0" index="0" speed="8.00" length="5.93" shape="507.20,501.60 503.35,501.05 501.60,500.00"/>
    </edge>
    <edge id=":0_2" function="internal">
        <lane id=":0_2_0" index="0" speed="3.65" length="2.34" shape="507.20,501.60 506.00,500.80 505.60,500.00"/>
    </edge>
    <edge id=":0_9" function="internal">
        <lane id=":0_9_0" index="0" speed="8.00" length="8.26" shape="501.60,500.00 500.60,499.40 498.95,496.65 498.40,492.80"/>
    </edge>
    <edge id=":0_10" function="internal">
        <lane id=":0_10_0" index="0" speed="3.65" length="2.34" shape="505.60,500.00 506.00,499.20 507.20,498.40"/>
    </edge>
    <edge id=":0_3" function="internal">
        <lane id=":0_3_0" index="0" speed="6.51" length="9.03" shape="501.60,492.80 501.95,495.25 503.00,497.00 504.75,498.05 507.20,498.40"/>
    </edge>
    <edge id=":0_4" function="internal">
        <lane id=":0_4_0" index="0" speed="8.00" length="14.19" shape="501.60,492.80 501.05,496.65 499.40,499.40 496.65,501.05 492.80,501.60"/>
    </edge>
    <edge id=":0_5" function="internal">
        <lane id=":0_5_0" index="0" speed="3.65" length="2.56" shape="501.60,492.80 500.80,494.00 500.00,494.40 499.80,494.30"/>
    </edge>
    <edge id=":0_11" function="internal">
        <lane id=":0_11_0" index="0" speed="3.65" length="2.12" shape="499.80,494.30 499.20,494.00 498.40,492.80"/>
    </edge>
    <edge id=":0_6" function="internal">
        <lane id=":0_6_0" index="0" speed="6.51" length="9.03" shape="492.80,498.40 495.25,498.05 497.00,497.00 498.05,495.25 498.40,492.80"/>
    </edge>
    <edge id=":0_7" function="internal">
        <lane id=":0_7_0" index="0" speed="10.00" length="14.40" shape="492.80,498.40 507.20,498.40">
            <neigh lane=":0_0_0"/>
        </lane>
    </edge>
    <edge id=":0_8" function="internal">
        <lane id=":0_8_0" index="0" speed="3.65" length="2.34" shape="492.80,498.40 494.00,499.20 494.40,500.00"/>
    </edge>
    <edge id=":0_12" function="internal">
        <lane id=":0_12_0" index="0" speed="3.65" length="2.34" shape="494.40,500.00 494.00,500.80 492.80,501.60"/>
    </edge>
    <edge id=":B_0" function="internal">
        <lane id=":B_0_0" index="0" speed="3.65" length="4.67" shape="1000.00,498.40 1001.20,499.20 1001.60,500.00 1001.20,500.80 1000.00,501.60"/>
    </edge>
    <edge id=":C_0" function="internal">
        <lane id=":C_0_0" index="0" speed="3.65" length="4.67" shape="498.40,0.00 499.20,-1.20 500.00,-1.60 500.80,-1.20 501.60,0.00"/>
    </edge>
    <edge id=":D_0" function="internal">
        <lane id=":D_0_0" index="0" speed="3.65" length="4.67" shape="0.00,501.60 -1.20,500.80 -1.60,500.00 -1.20,499.20 0.00,498.40"/>
    </edge>

    <edge id="inB" from="B" to="0" priority="1" length="80.00">
        <lane id="inB_0" index="0" speed="10.00" length="80.00" shape="1000.00,501.60 507.20,501.60">
            <neigh lane="outB_0"/>
        </lane>
    </edge>
    <edge id="inC" from="C" to="0" priority="1" length="80.00">
        <lane id="inC_0" index="0" speed="10.00" length="80.00" shape="501.60,0.00 501.60,492.80">
            <neigh lane="outC_0"/>
        </lane>
    </edge>
    <edge id="inD" from="D" to="0" priority="1" length="80.00">
        <lane id="inD_0" index="0" speed="10.00" length="80.00" shape="0.00,498.40 492.80,498.40">
            <neigh lane="outD_0"/>
        </lane>
    </edge>
    <edge id="outB" from="0" to="B" priority="1" length="80.00">
        <lane id="outB_0" index="0" speed="10.00" length="80.00" shape="507.20,498.40 1000.00,498.40">
            <neigh lane="inB_0"/>
        </lane>
    </edge>
    <edge id="outC" from="0" to="C" priority="1" length="80.00">
        <lane id="outC_0" index="0" speed="10.00" length="80.00" shape="498.40,492.80 498.40,0.00">
            <neigh lane="inC_0"/>
        </lane>
    </edge>
    <edge id="outD" from="0" to="D" priority="1" length="80.00">
        <lane id="outD_0" index="0" speed="10.00" length="80.00" shape="492.80,501.60 0.00,501.60">
            <neigh lane="inD_0"/>
        </lane>
    </edge>

    <tlLogic id="0" type="static" programID="0" offset="0">
        <phase duration="42" state="GggrrrGGg"/>
        <phase duration="3"  state="yyyrrryyy"/>
        <phase duration="42" state="rrrGGgGrr"/>
        <phase duration="3"  state="rrryyyyrr"/>
    </tlLogic>

    <junction id="0" type="traffic_light" x="500.00" y="500.00" incLanes="inB_0 inC_0 inD_0" intLanes=":0_0_0 :0_9_0 :0_10_0 :0_3_0 :0_4_0 :0_11_0 :0_6_0 :0_7_0 :0_12_0" shape="507.20,503.20 507.20,496.80 504.98,496.36 504.20,495.80 503.64,495.02 503.31,494.02 503.20,492.80 496.80,492.80 496.36,495.02 495.80,495.80 495.02,496.36 494.02,496.69 492.80,496.80 492.80,503.20">
        <request index="0" response="000000000" foes="100010000" cont="0"/>
        <request index="1" response="011000000" foes="011110000" cont="1"/>
        <request index="2" response="010001000" foes="010001000" cont="1"/>
        <request index="3" response="010000000" foes="010000100" cont="0"/>
        <request index="4" response="010000011" foes="110000011" cont="0"/>
        <request index="5" response="001000010" foes="001000010" cont="1"/>
        <request index="6" response="000000000" foes="000100010" cont="0"/>
        <request index="7" response="000000000" foes="000011110" cont="0"/>
        <request index="8" response="000010001" foes="000010001" cont="1"/>
    </junction>
    <junction id="B" type="priority" x="1000.00" y="500.00" incLanes="outB_0" intLanes=":B_0_0" shape="1000.00,500.00 1000.00,496.80 1000.00,500.00">
        <request index="0" response="0" foes="0" cont="0"/>
    </junction>
    <junction id="C" type="priority" x="500.00" y="0.00" incLanes="outC_0" intLanes=":C_0_0" shape="500.00,0.00 496.80,0.00 500.00,0.00">
        <request index="0" response="0" foes="0" cont="0"/>
    </junction>
    <junction id="D" type="priority" x="0.00" y="500.00" incLanes="outD_0" intLanes=":D_0_0" shape="0.00,500.00 0.00,503.20 0.00,500.00">
        <request index="0" response="0" foes="0" cont="0"/>
    </junction>

    <junction id=":0_9_0" type="internal" x="501.60" y="500.00" incLanes=":0_1_0 inD_0" intLanes=":0_4_0 :0_5_0 :0_6_0 :0_7_0"/>
    <junction id=":0_10_0" type="internal" x="505.60" y="500.00" incLanes=":0_2_0 inC_0 inD_0" intLanes=":0_3_0 :0_7_0"/>
    <junction id=":0_11_0" type="internal" x="499.80" y="494.30" incLanes=":0_5_0 inB_0 inD_0" intLanes=":0_1_0 :0_6_0"/>
    <junction id=":0_12_0" type="internal" x="494.40" y="500.00" incLanes=":0_8_0 inB_0 inC_0" intLanes=":0_0_0 :0_4_0"/>

    <connection from="inB" to="outD" fromLane="0" toLane="0" via=":0_0_0" tl="0" linkIndex="0" dir="s" state="O"/>
    <connection from="inB" to="outC" fromLane="0" toLane="0" via=":0_1_0" tl="0" linkIndex="1" dir="l" state="o"/>
    <connection from="inB" to="outB" fromLane="0" toLane="0" via=":0_2_0" tl="0" linkIndex="2" dir="t" state="o"/>
    <connection from="inC" to="outB" fromLane="0" toLane="0" via=":0_3_0" tl="0" linkIndex="3" dir="r" state="o"/>
    <connection from="inC" to="outD" fromLane="0" toLane="0" via=":0_4_0" tl="0" linkIndex="4" dir="l" state="o"/>
    <connection from="inC" to="outC" fromLane="0" toLane="0" via=":0_5_0" tl="0" linkIndex="5" dir="t" state="o"/>
    <connection from="inD" to="outC" fromLane="0" toLane="0" via=":0_6_0" tl="0" linkIndex="6" dir="r" state="O"/>
    <connection from="inD" to="outB" fromLane="0" toLane="0" via=":0_7_0" tl="0" linkIndex="7" dir="s" state="O"/>
    <connection from="inD" to="outD" fromLane="0" toLane="0" via=":0_8_0" tl="0" linkIndex="8" dir="t" state="o"/>
    <connection from="outB" to="inB" fromLane="0" toLane="0" via=":B_0_0" dir="t" state="M"/>
    <connection from="outC" to="inC" fromLane="0" toLane="0" via=":C_0_0" dir="t" state="M"/>
    <connection from="outD" to="inD" fromLane="0" toLane="0" via=":D_0_0" dir="t" state="M"/>

    <connection from=":0_0" to="outD" fromLane="0" toLane="0" dir="s" state="M"/>
    <connection from=":0_1" to="outC" fromLane="0" toLane="0" via=":0_9_0" dir="l" state="m"/>
    <connection from=":0_9" to="outC" fromLane="0" toLane="0" dir="l" state="M"/>
    <connection from=":0_2" to="outB" fromLane="0" toLane="0" via=":0_10_0" dir="t" state="m"/>
    <connection from=":0_10" to="outB" fromLane="0" toLane="0" dir="t" state="M"/>
    <connection from=":0_3" to="outB" fromLane="0" toLane="0" dir="r" state="M"/>
    <connection from=":0_4" to="outD" fromLane="0" toLane="0" dir="l" state="M"/>
    <connection from=":0_5" to="outC" fromLane="0" toLane="0" via=":0_11_0" dir="t" state="m"/>
    <connection from=":0_11" to="outC" fromLane="0" toLane="0" dir="t" state="M"/>
    <connection from=":0_6" to="outC" fromLane="0" toLane="0" dir="r" state="M"/>
    <connection from=":0_7" to="outB" fromLane="0" toLane="0" dir="s" state="M"/>
    <connection from=":0_8" to="outD" fromLane="0" toLane="0" via=":0_12_0" dir="t" state="m"/>
    <connection from=":0_12" to="outD" fromLane="0" toLane="0" dir="t" state="M"/>
    <connection from=":B_0" to="inB" fromLane="0" toLane="0" dir="t" state="M"/>
    <connection from=":C_0" to="inC" fromLane="0" toLane="0" dir="t" state="M"/>
    <connection from=":D_0" to="inD" fromLane="0" toLane="0" dir="t" state="M"/>

</net>
