<?xml version="1.0" encoding="UTF-8"?>

<!-- generated on 09/17/20 20:31:07 by Eclipse SUMO netconvert Version 1.6.0
<configuration xmlns:xsi="http://www.w3.org/2001/XMLSchema-instance" xsi:noNamespaceSchemaLocation="http://sumo.dlr.de/xsd/netconvertConfiguration.xsd">

    <input>
        <node-files value="C:\Users\TLOU%20LEBELO\Documents\GitHub\Traffic-Light-Optimization\tl_optimization\main_app\media\config\intersection\nodes\inter_34.nod.xml"/>
        <edge-files value="C:\Users\TLOU%20LEBELO\Documents\GitHub\Traffic-Light-Optimization\tl_optimization\main_app\media\config\intersection\edges\inter_34.edg.xml"/>
    </input>

    <output>
        <output-file value="C:\Users\TLOU%20LEBELO\Documents\GitHub\Traffic-Light-Optimization\tl_optimization\main_app\simulation\generic\road_intersection.net.xml"/>
    </output>

    <report>
        <aggregate-warnings value="5"/>
    </report>

</configuration>
-->

<net version="1.6" junctionCornerDetail="5" limitTurnSpeed="5.50" xmlns:xsi="http://www.w3.org/2001/XMLSchema-instance" xsi:noNamespaceSchemaLocation="http://sumo.dlr.de/xsd/net_file.xsd">

    <location netOffset="30.00,30.00" convBoundary="0.00,0.00,30.00,60.00" origBoundary="-30.00,-30.00,0.00,30.00" projParameter="!"/>

    <edge id=":0_0" function="internal">
        <lane id=":0_0_0" index="0" speed="6.51" length="9.03" shape="25.20,40.40 24.85,37.95 23.80,36.20 22.05,35.15 19.60,34.80"/>
    </edge>
    <edge id=":0_1" function="internal">
        <lane id=":0_1_0" index="0" speed="10.00" length="17.95" shape="25.20,40.40 25.70,34.58 26.80,30.12 27.90,26.40 28.40,22.80"/>
    </edge>
    <edge id=":0_2" function="internal">
        <lane id=":0_2_0" index="0" speed="3.65" length="2.49" shape="28.40,40.40 29.20,39.20 30.00,38.80 30.14,38.87"/>
    </edge>
    <edge id=":0_10" function="internal">
        <lane id=":0_10_0" index="0" speed="3.65" length="2.18" shape="30.14,38.87 30.80,39.20 31.60,40.40"/>
    </edge>
    <edge id=":0_3" function="internal">
        <lane id=":0_3_0" index="0" speed="10.00" length="17.98" shape="38.00,22.80 37.50,28.07 36.40,31.60 35.30,35.13 34.80,40.40"/>
        <lane id=":0_3_1" index="1" speed="10.00" length="17.98" shape="34.80,22.80 34.30,28.07 33.20,31.60 32.10,35.13 31.60,40.40"/>
    </edge>
    <edge id=":0_5" function="internal">
        <lane id=":0_5_0" index="0" speed="8.67" length="7.27" shape="31.60,22.80 30.85,26.65 28.73,29.24"/>
    </edge>
    <edge id=":0_6" function="internal">
        <lane id=":0_6_0" index="0" speed="3.65" length="2.55" shape="31.60,22.80 30.80,24.00 30.00,24.40 29.81,24.30"/>
    </edge>
    <edge id=":0_11" function="internal">
        <lane id=":0_11_0" index="0" speed="8.67" length="9.58" shape="28.73,29.24 28.60,29.40 24.85,31.05 19.60,31.60"/>
    </edge>
    <edge id=":0_12" function="internal">
        <lane id=":0_12_0" index="0" speed="3.65" length="2.12" shape="29.81,24.30 29.20,24.00 28.40,22.80"/>
    </edge>
    <edge id=":0_7" function="internal">
        <lane id=":0_7_0" index="0" speed="7.33" length="11.73" shape="19.60,28.40 23.45,28.05 26.20,27.00 27.85,25.25 28.40,22.80"/>
    </edge>
    <edge id=":0_8" function="internal">
        <lane id=":0_8_0" index="0" speed="9.26" length="19.35" shape="19.60,28.40 24.85,29.15 28.60,31.40 30.85,35.15 31.60,40.40"/>
    </edge>
    <edge id=":0_9" function="internal">
        <lane id=":0_9_0" index="0" speed="3.65" length="2.34" shape="19.60,28.40 20.80,29.20 21.20,30.00"/>
    </edge>
    <edge id=":0_13" function="internal">
        <lane id=":0_13_0" index="0" speed="3.65" length="2.34" shape="21.20,30.00 20.80,30.80 19.60,31.60"/>
    </edge>
    <edge id=":A_0" function="internal">
        <lane id=":A_0_0" index="0" speed="3.65" length="4.67" shape="31.60,60.00 30.80,61.20 30.00,61.60 29.20,61.20 28.40,60.00"/>
    </edge>
    <edge id=":C_0" function="internal">
        <lane id=":C_0_0" index="0" speed="3.65" length="4.67" shape="28.40,0.00 29.20,-1.20 30.00,-1.60 30.80,-1.20 31.60,0.00"/>
    </edge>
    <edge id=":D_0" function="internal">
        <lane id=":D_0_0" index="0" speed="3.65" length="4.67" shape="0.00,31.60 -1.20,30.80 -1.60,30.00 -1.20,29.20 0.00,28.40"/>
    </edge>

    <edge id="inA" from="A" to="0" priority="1" length="50.00">
        <lane id="inA_0" index="0" speed="10.00" length="50.00" shape="25.20,60.00 25.20,40.40"/>
        <lane id="inA_1" index="1" speed="10.00" length="50.00" shape="28.40,60.00 28.40,40.40">
            <neigh lane="outA_1"/>
        </lane>
    </edge>
    <edge id="inC" from="C" to="0" priority="1" length="50.00">
        <lane id="inC_0" index="0" speed="10.00" length="50.00" shape="38.00,0.00 38.00,22.80"/>
        <lane id="inC_1" index="1" speed="10.00" length="50.00" shape="34.80,0.00 34.80,22.80"/>
        <lane id="inC_2" index="2" speed="10.00" length="50.00" shape="31.60,0.00 31.60,22.80">
            <neigh lane="outC_0"/>
        </lane>
    </edge>
    <edge id="inD" from="D" to="0" priority="1" length="50.00">
        <lane id="inD_0" index="0" speed="10.00" length="50.00" shape="0.00,28.40 19.60,28.40">
            <neigh lane="outD_1"/>
        </lane>
    </edge>
    <edge id="outA" from="0" to="A" priority="1" length="50.00">
        <lane id="outA_0" index="0" speed="10.00" length="50.00" shape="34.80,40.40 34.80,60.00"/>
        <lane id="outA_1" index="1" speed="10.00" length="50.00" shape="31.60,40.40 31.60,60.00">
            <neigh lane="inA_1"/>
        </lane>
    </edge>
    <edge id="outC" from="0" to="C" priority="1" length="50.00">
        <lane id="outC_0" index="0" speed="10.00" length="50.00" shape="28.40,22.80 28.40,0.00">
            <neigh lane="inC_2"/>
        </lane>
    </edge>
    <edge id="outD" from="0" to="D" priority="1" length="50.00">
        <lane id="outD_0" index="0" speed="10.00" length="50.00" shape="19.60,34.80 0.00,34.80"/>
        <lane id="outD_1" index="1" speed="10.00" length="50.00" shape="19.60,31.60 0.00,31.60">
            <neigh lane="inD_0"/>
        </lane>
    </edge>

    <tlLogic id="0" type="static" programID="0" offset="0">
        <phase duration="38" state="GGgGGggrrr"/>
        <phase duration="3"  state="yyyyyggrrr"/>
        <phase duration="6"  state="rrrGGGGrrr"/>
        <phase duration="3"  state="rrryyyyrrr"/>
        <phase duration="37" state="GrrrrrrGGg"/>
        <phase duration="3"  state="yrrrrrryyy"/>
    </tlLogic>

    <junction id="0" type="traffic_light" x="30.00" y="30.00" incLanes="inA_0 inA_1 inC_0 inC_1 inC_2 inD_0" intLanes=":0_0_0 :0_1_0 :0_10_0 :0_3_0 :0_3_1 :0_11_0 :0_12_0 :0_7_0 :0_8_0 :0_13_0" shape="23.60,40.40 36.40,40.40 36.64,36.61 37.23,33.85 38.77,29.35 39.36,26.59 39.60,22.80 26.80,22.80 26.00,25.02 25.00,25.80 23.60,26.36 21.80,26.69 19.60,26.80 19.60,36.40 21.82,36.84 22.60,37.40 23.16,38.18 23.49,39.18">
        <request index="0" response="0000000000" foes="0000000000" cont="0"/>
        <request index="1" response="0000000000" foes="0111100000" cont="0"/>
        <request index="2" response="0100011000" foes="0100011000" cont="1"/>
        <request index="3" response="0000000000" foes="0100000100" cont="0"/>
        <request index="4" response="0000000000" foes="0100000100" cont="0"/>
        <request index="5" response="0000000010" foes="1100000010" cont="1"/>
        <request index="6" response="0010000010" foes="0010000010" cont="1"/>
        <request index="7" response="0000000010" foes="0001000010" cont="0"/>
        <request index="8" response="0000111010" foes="0000111110" cont="0"/>
        <request index="9" response="0000100000" foes="0000100000" cont="1"/>
    </junction>
    <junction id="A" type="priority" x="30.00" y="60.00" incLanes="outA_0 outA_1" intLanes=":A_0_0" shape="30.00,60.00 36.40,60.00 30.00,60.00">
        <request index="0" response="0" foes="0" cont="0"/>
    </junction>
    <junction id="C" type="priority" x="30.00" y="0.00" incLanes="outC_0" intLanes=":C_0_0" shape="30.00,0.00 26.80,0.00 30.00,0.00">
        <request index="0" response="0" foes="0" cont="0"/>
    </junction>
    <junction id="D" type="priority" x="0.00" y="30.00" incLanes="outD_0 outD_1" intLanes=":D_0_0" shape="0.00,30.00 0.00,36.40 0.00,30.00">
        <request index="0" response="0" foes="0" cont="0"/>
    </junction>

    <junction id=":0_10_0" type="internal" x="30.14" y="38.87" incLanes=":0_2_0 inC_0 inC_1 inD_0" intLanes=":0_3_0 :0_3_1 :0_8_0"/>
    <junction id=":0_11_0" type="internal" x="28.73" y="29.24" incLanes=":0_5_0 inA_0" intLanes=":0_0_0 :0_1_0 :0_8_0 :0_9_0"/>
    <junction id=":0_12_0" type="internal" x="29.81" y="24.30" incLanes=":0_6_0 inA_0 inD_0" intLanes=":0_1_0 :0_7_0"/>
    <junction id=":0_13_0" type="internal" x="21.20" y="30.00" incLanes=":0_9_0 inA_0 inC_2" intLanes=":0_0_0 :0_5_0"/>

    <connection from="inA" to="outD" fromLane="0" toLane="0" via=":0_0_0" tl="0" linkIndex="0" dir="r" state="O"/>
    <connection from="inA" to="outC" fromLane="0" toLane="0" via=":0_1_0" tl="0" linkIndex="1" dir="s" state="O"/>
    <connection from="inA" to="outA" fromLane="1" toLane="1" via=":0_2_0" tl="0" linkIndex="2" dir="t" state="o"/>
    <connection from="inC" to="outA" fromLane="0" toLane="0" via=":0_3_0" tl="0" linkIndex="3" dir="s" state="O"/>
    <connection from="inC" to="outA" fromLane="1" toLane="1" via=":0_3_1" tl="0" linkIndex="4" dir="s" state="O"/>
    <connection from="inC" to="outD" fromLane="2" toLane="1" via=":0_5_0" tl="0" linkIndex="5" dir="l" state="o"/>
    <connection from="inC" to="outC" fromLane="2" toLane="0" via=":0_6_0" tl="0" linkIndex="6" dir="t" state="o"/>
    <connection from="inD" to="outC" fromLane="0" toLane="0" via=":0_7_0" tl="0" linkIndex="7" dir="r" state="o"/>
    <connection from="inD" to="outA" fromLane="0" toLane="1" via=":0_8_0" tl="0" linkIndex="8" dir="l" state="o"/>
    <connection from="inD" to="outD" fromLane="0" toLane="1" via=":0_9_0" tl="0" linkIndex="9" dir="t" state="o"/>
    <connection from="outA" to="inA" fromLane="1" toLane="1" via=":A_0_0" dir="t" state="M"/>
    <connection from="outC" to="inC" fromLane="0" toLane="2" via=":C_0_0" dir="t" state="M"/>
    <connection from="outD" to="inD" fromLane="1" toLane="0" via=":D_0_0" dir="t" state="M"/>

    <connection from=":0_0" to="outD" fromLane="0" toLane="0" dir="r" state="M"/>
    <connection from=":0_1" to="outC" fromLane="0" toLane="0" dir="s" state="M"/>
    <connection from=":0_2" to="outA" fromLane="0" toLane="1" via=":0_10_0" dir="t" state="m"/>
    <connection from=":0_10" to="outA" fromLane="0" toLane="1" dir="t" state="M"/>
    <connection from=":0_3" to="outA" fromLane="0" toLane="0" dir="s" state="M"/>
    <connection from=":0_3" to="outA" fromLane="1" toLane="1" dir="s" state="M"/>
    <connection from=":0_5" to="outD" fromLane="0" toLane="1" via=":0_11_0" dir="l" state="m"/>
    <connection from=":0_11" to="outD" fromLane="0" toLane="1" dir="l" state="M"/>
    <connection from=":0_6" to="outC" fromLane="0" toLane="0" via=":0_12_0" dir="t" state="m"/>
    <connection from=":0_12" to="outC" fromLane="0" toLane="0" dir="t" state="M"/>
    <connection from=":0_7" to="outC" fromLane="0" toLane="0" dir="r" state="M"/>
    <connection from=":0_8" to="outA" fromLane="0" toLane="1" dir="l" state="M"/>
    <connection from=":0_9" to="outD" fromLane="0" toLane="1" via=":0_13_0" dir="t" state="m"/>
    <connection from=":0_13" to="outD" fromLane="0" toLane="1" dir="t" state="M"/>
    <connection from=":A_0" to="inA" fromLane="0" toLane="1" dir="t" state="M"/>
    <connection from=":C_0" to="inC" fromLane="0" toLane="2" dir="t" state="M"/>
    <connection from=":D_0" to="inD" fromLane="0" toLane="0" dir="t" state="M"/>

</net>
