<?xml version="1.0" encoding="UTF-8"?>

<!-- generated on Wed 19 Aug 2020 18:24:26 by Eclipse SUMO netedit Version 1.4.0
<configuration xmlns:xsi="http://www.w3.org/2001/XMLSchema-instance" xsi:noNamespaceSchemaLocation="http://sumo.dlr.de/xsd/netconvertConfiguration.xsd">

    <output>
        <output-file value="/home/smile/Desktop/New%20demo/S_A/s_a.net.xml"/>
    </output>

    <processing>
        <offset.disable-normalization value="true"/>
    </processing>

    <junctions>
        <no-turnarounds value="true"/>
    </junctions>

    <report>
        <aggregate-warnings value="5"/>
    </report>

</configuration>
-->

<net version="1.3" junctionCornerDetail="5" limitTurnSpeed="5.50" xmlns:xsi="http://www.w3.org/2001/XMLSchema-instance" xsi:noNamespaceSchemaLocation="http://sumo.dlr.de/xsd/net_file.xsd">

    <location netOffset="0.00,0.00" convBoundary="-46.56,26.09,77.17,70.29" origBoundary="10000000000.00,10000000000.00,-10000000000.00,-10000000000.00" projParameter="!"/>

    <edge id=":gneJ1_0" function="internal">
        <lane id=":gneJ1_0_0" index="0" speed="6.37" length="9.04" shape="29.93,65.49 32.40,65.13 34.12,64.07 35.07,62.29 35.26,59.79"/>
    </edge>
    <edge id=":gneJ1_1" function="internal">
        <lane id=":gneJ1_1_0" index="0" speed="7.20" length="11.85" shape="29.93,65.49 33.80,65.12 36.52,64.01 38.07,62.17 38.46,59.58"/>
    </edge>
    <edge id=":gneJ1_2" function="internal">
        <lane id=":gneJ1_2_0" index="0" speed="13.89" length="14.43" shape="29.93,65.49 44.35,65.47"/>
        <lane id=":gneJ1_2_1" index="1" speed="13.89" length="14.43" shape="29.93,68.69 44.37,68.67"/>
    </edge>

    <edge id="gneE0" from="gneJ0" to="gneJ1" priority="-1">
        <lane id="gneE0_0" index="0" speed="13.89" length="76.49" shape="-46.56,65.49 29.93,65.49"/>
        <lane id="gneE0_1" index="1" speed="13.89" length="76.49" shape="-46.56,68.69 29.93,68.69"/>
    </edge>
    <edge id="gneE1" from="gneJ1" to="gneJ2" priority="-1">
        <lane id="gneE1_0" index="0" speed="13.89" length="33.46" shape="35.26,59.79 33.07,26.40"/>
        <lane id="gneE1_1" index="1" speed="13.89" length="33.46" shape="38.46,59.58 36.27,26.19"/>
    </edge>
    <edge id="gneE2" from="gneJ1" to="gneJ3" priority="-1">
        <lane id="gneE2_0" index="0" speed="13.89" length="32.80" shape="44.35,65.47 77.15,65.31"/>
        <lane id="gneE2_1" index="1" speed="13.89" length="32.80" shape="44.37,68.67 77.17,68.51"/>
    </edge>

    <tlLogic id="gneJ1" type="static" programID="0" offset="0">
        <phase duration="82" state="GGGG"/>
        <phase duration="3"  state="yyyy"/>
        <phase duration="5"  state="rrrr"/>
    </tlLogic>

    <junction id="gneJ0" type="dead_end" x="-46.56" y="70.29" incLanes="" intLanes="" shape="-46.56,70.29 -46.56,63.89"/>
    <junction id="gneJ1" type="traffic_light" x="40.76" y="70.29" incLanes="gneE0_0 gneE0_1" intLanes=":gneJ1_0_0 :gneJ1_1_0 :gneJ1_2_0 :gneJ1_2_1" shape="44.37,70.27 44.34,63.87 42.09,63.39 41.27,62.78 40.66,61.93 40.25,60.83 40.05,59.48 33.67,59.90 33.37,62.12 32.86,62.89 32.12,63.45 31.14,63.78 29.93,63.89 29.93,70.29">
        <request index="0" response="0000" foes="0000" cont="0"/>
        <request index="1" response="0000" foes="0000" cont="0"/>
        <request index="2" response="0000" foes="0000" cont="0"/>
        <request index="3" response="0000" foes="0000" cont="0"/>
    </junction>
    <junction id="gneJ2" type="dead_end" x="37.86" y="26.09" incLanes="gneE1_0 gneE1_1" intLanes="" shape="31.48,26.51 37.86,26.09"/>
    <junction id="gneJ3" type="dead_end" x="77.17" y="70.11" incLanes="gneE2_0 gneE2_1" intLanes="" shape="77.14,63.71 77.17,70.11"/>

    <connection from="gneE0" to="gneE1" fromLane="0" toLane="0" via=":gneJ1_0_0" tl="gneJ1" linkIndex="0" dir="r" state="O"/>
    <connection from="gneE0" to="gneE1" fromLane="0" toLane="1" via=":gneJ1_1_0" tl="gneJ1" linkIndex="1" dir="r" state="O"/>
    <connection from="gneE0" to="gneE2" fromLane="0" toLane="0" via=":gneJ1_2_0" tl="gneJ1" linkIndex="2" dir="s" state="O"/>
    <connection from="gneE0" to="gneE2" fromLane="1" toLane="1" via=":gneJ1_2_1" tl="gneJ1" linkIndex="3" dir="s" state="O"/>

    <connection from=":gneJ1_0" to="gneE1" fromLane="0" toLane="0" dir="r" state="M"/>
    <connection from=":gneJ1_1" to="gneE1" fromLane="0" toLane="1" dir="r" state="M"/>
    <connection from=":gneJ1_2" to="gneE2" fromLane="0" toLane="0" dir="s" state="M"/>
    <connection from=":gneJ1_2" to="gneE2" fromLane="1" toLane="1" dir="s" state="M"/>

</net>
