<edges xmlns:xsi="http://www.w3.org/2001/XMLSchema-instance" xsi:noNamespaceSchemaLocation="http://sumo.dlr.de/xsd/edges_file.xsd">
  <edge id="inA" from="A" to="0" priority="1" numLanes="2" speed="10" length="50">
    <neigh lane="outA_1"/>
  </edge>
  <edge id="outA" from="0" to="A" priority="1" numLanes="2" speed="10" length="50">
    <neigh lane="inA_1"/>
  </edge>
  <edge id="inC" from="C" to="0" priority="1" numLanes="3" speed="10" length="50">
    <neigh lane="outC_0"/>
  </edge>
  <edge id="outC" from="0" to="C" priority="1" numLanes="1" speed="10" length="50">
    <neigh lane="inC_2"/>
  </edge>
  <edge id="inD" from="D" to="0" priority="1" numLanes="1" speed="10" length="80">
    <neigh lane="outD_0"/>
  </edge>
  <edge id="outD" from="0" to="D" priority="1" numLanes="1" speed="10" length="80">
    <neigh lane="inD_0"/>
  </edge>
</edges>
