<nodes xmlns:xsi="http://www.w3.org/2001/XMLSchema-instance" xsi:noNamespaceSchemaLocation="http://sumo.dlr.de/xsd/nodes_file.xsd">
  <node id="0" x="0.0" y="0.0" type="traffic_light"/>
  <node id="A" x="0.0" y="+25" type="priority"/>
  <node id="C" x="0.0" y="-20" type="priority"/>
  <node id="B" x="+20" y="0.0" type="priority"/>
</nodes>
