<?xml version="1.0" encoding="UTF-8"?>

<!-- generated on 08/26/20 13:28:37 by Eclipse SUMO GUI Version 1.6.0
<configuration xmlns:xsi="http://www.w3.org/2001/XMLSchema-instance" xsi:noNamespaceSchemaLocation="http://sumo.dlr.de/xsd/sumoConfiguration.xsd">

    <input>
        <net-file value="4way.net.xml"/>
        <route-files value="4way.rou.xml"/>
        <additional-files value="4way.add.xml"/>
    </input>

    <output>
        <tripinfo-output value="tripinfo.xml"/>
    </output>

    <traci_server>
        <remote-port value="1725"/>
    </traci_server>

</configuration>
