<routes>
   <vType id="car"
   			vClass="passenger" length="5" accel="3.5" decel="2.2"
   			sigma="1.0" maxSpeed="30"/>

    <flow id="carflow_1" type="car" beg="0" end="100" number="78" from="gneE9" to="gneE11"/>
    <flow id="carflow_2" type="car" beg="0" end="100" number="30" from="gneE7" to="gneE11"/>


</routes>
